
---------- Begin Simulation Statistics ----------
final_tick                                85603575500                       # Number of ticks from beginning of simulation (restored from checkpoints and never reset)
host_inst_rate                                 225161                       # Simulator instruction rate (inst/s)
host_mem_usage                                 691992                       # Number of bytes of host memory used
host_op_rate                                   225603                       # Simulator op (including micro ops) rate (op/s)
host_seconds                                   444.13                       # Real time elapsed on the host
host_tick_rate                              192745777                       # Simulator tick rate (ticks/s)
sim_freq                                 1000000000000                       # Frequency of simulated ticks
sim_insts                                   100000001                       # Number of instructions simulated
sim_ops                                     100196363                       # Number of ops (including micro ops) simulated
sim_seconds                                  0.085604                       # Number of seconds simulated
sim_ticks                                 85603575500                       # Number of ticks simulated
system.cpu.branchPred.BTBCorrect                    0                       # Number of correct BTB predictions (this stat may not work properly.
system.cpu.branchPred.BTBHitPct             99.695358                       # BTB Hit Percentage
system.cpu.branchPred.BTBHits                 2095408                       # Number of BTB hits
system.cpu.branchPred.BTBLookups              2101811                       # Number of BTB lookups
system.cpu.branchPred.RASInCorrect                  5                       # Number of incorrect RAS predictions.
system.cpu.branchPred.condIncorrect             81341                       # Number of conditional branches incorrect
system.cpu.branchPred.condPredicted           3727678                       # Number of conditional branches predicted
system.cpu.branchPred.indirectHits                291                       # Number of indirect target hits.
system.cpu.branchPred.indirectLookups             806                       # Number of indirect predictor lookups.
system.cpu.branchPred.indirectMisses              515                       # Number of indirect misses.
system.cpu.branchPred.lookups                 4477758                       # Number of BP lookups
system.cpu.branchPred.usedRAS                   65337                       # Number of times the RAS was used to get a target.
system.cpu.branchPredindirectMispredicted          171                       # Number of mispredicted indirect branches.
system.cpu.committedInsts                   100000001                       # Number of instructions committed
system.cpu.committedOps                     100196363                       # Number of ops (including micro ops) committed
system.cpu.cpi                               1.712071                       # CPI: cycles per instruction
system.cpu.discardedOps                        190695                       # Number of ops (including micro ops) which were discarded before commit
system.cpu.dtb.accesses                             0                       # DTB accesses
system.cpu.dtb.align_faults                         0                       # Number of TLB faults due to alignment restrictions
system.cpu.dtb.domain_faults                        0                       # Number of TLB faults due to domain restrictions
system.cpu.dtb.flush_entries                        0                       # Number of entries that have been flushed from TLB
system.cpu.dtb.flush_tlb                            0                       # Number of times complete TLB was flushed
system.cpu.dtb.flush_tlb_asid                       0                       # Number of times TLB was flushed by ASID
system.cpu.dtb.flush_tlb_mva                        0                       # Number of times TLB was flushed by MVA
system.cpu.dtb.flush_tlb_mva_asid                   0                       # Number of times TLB was flushed by MVA & ASID
system.cpu.dtb.hits                                 0                       # DTB hits
system.cpu.dtb.inst_accesses                        0                       # ITB inst accesses
system.cpu.dtb.inst_hits                            0                       # ITB inst hits
system.cpu.dtb.inst_misses                          0                       # ITB inst misses
system.cpu.dtb.misses                               0                       # DTB misses
system.cpu.dtb.perms_faults                         0                       # Number of TLB faults due to permissions restrictions
system.cpu.dtb.prefetch_faults                      0                       # Number of TLB faults due to prefetch
system.cpu.dtb.read_accesses                        0                       # DTB read accesses
system.cpu.dtb.read_hits                            0                       # DTB read hits
system.cpu.dtb.read_misses                          0                       # DTB read misses
system.cpu.dtb.stage2_mmu.stage2_tlb.accesses            0                       # DTB accesses
system.cpu.dtb.stage2_mmu.stage2_tlb.align_faults            0                       # Number of TLB faults due to alignment restrictions
system.cpu.dtb.stage2_mmu.stage2_tlb.domain_faults            0                       # Number of TLB faults due to domain restrictions
system.cpu.dtb.stage2_mmu.stage2_tlb.flush_entries            0                       # Number of entries that have been flushed from TLB
system.cpu.dtb.stage2_mmu.stage2_tlb.flush_tlb            0                       # Number of times complete TLB was flushed
system.cpu.dtb.stage2_mmu.stage2_tlb.flush_tlb_asid            0                       # Number of times TLB was flushed by ASID
system.cpu.dtb.stage2_mmu.stage2_tlb.flush_tlb_mva            0                       # Number of times TLB was flushed by MVA
system.cpu.dtb.stage2_mmu.stage2_tlb.flush_tlb_mva_asid            0                       # Number of times TLB was flushed by MVA & ASID
system.cpu.dtb.stage2_mmu.stage2_tlb.hits            0                       # DTB hits
system.cpu.dtb.stage2_mmu.stage2_tlb.inst_accesses            0                       # ITB inst accesses
system.cpu.dtb.stage2_mmu.stage2_tlb.inst_hits            0                       # ITB inst hits
system.cpu.dtb.stage2_mmu.stage2_tlb.inst_misses            0                       # ITB inst misses
system.cpu.dtb.stage2_mmu.stage2_tlb.misses            0                       # DTB misses
system.cpu.dtb.stage2_mmu.stage2_tlb.perms_faults            0                       # Number of TLB faults due to permissions restrictions
system.cpu.dtb.stage2_mmu.stage2_tlb.prefetch_faults            0                       # Number of TLB faults due to prefetch
system.cpu.dtb.stage2_mmu.stage2_tlb.read_accesses            0                       # DTB read accesses
system.cpu.dtb.stage2_mmu.stage2_tlb.read_hits            0                       # DTB read hits
system.cpu.dtb.stage2_mmu.stage2_tlb.read_misses            0                       # DTB read misses
system.cpu.dtb.stage2_mmu.stage2_tlb.walker.walkRequestOrigin_Requested::Data            0                       # Table walker requests started/completed, data/inst
system.cpu.dtb.stage2_mmu.stage2_tlb.walker.walkRequestOrigin_Requested::Inst            0                       # Table walker requests started/completed, data/inst
system.cpu.dtb.stage2_mmu.stage2_tlb.walker.walkRequestOrigin_Requested::total            0                       # Table walker requests started/completed, data/inst
system.cpu.dtb.stage2_mmu.stage2_tlb.walker.walkRequestOrigin_Completed::Data            0                       # Table walker requests started/completed, data/inst
system.cpu.dtb.stage2_mmu.stage2_tlb.walker.walkRequestOrigin_Completed::Inst            0                       # Table walker requests started/completed, data/inst
system.cpu.dtb.stage2_mmu.stage2_tlb.walker.walkRequestOrigin_Completed::total            0                       # Table walker requests started/completed, data/inst
system.cpu.dtb.stage2_mmu.stage2_tlb.walker.walkRequestOrigin::total            0                       # Table walker requests started/completed, data/inst
system.cpu.dtb.stage2_mmu.stage2_tlb.walker.walks            0                       # Table walker walks requested
system.cpu.dtb.stage2_mmu.stage2_tlb.write_accesses            0                       # DTB write accesses
system.cpu.dtb.stage2_mmu.stage2_tlb.write_hits            0                       # DTB write hits
system.cpu.dtb.stage2_mmu.stage2_tlb.write_misses            0                       # DTB write misses
system.cpu.dtb.walker.walkRequestOrigin_Requested::Data            0                       # Table walker requests started/completed, data/inst
system.cpu.dtb.walker.walkRequestOrigin_Requested::Inst            0                       # Table walker requests started/completed, data/inst
system.cpu.dtb.walker.walkRequestOrigin_Requested::total            0                       # Table walker requests started/completed, data/inst
system.cpu.dtb.walker.walkRequestOrigin_Completed::Data            0                       # Table walker requests started/completed, data/inst
system.cpu.dtb.walker.walkRequestOrigin_Completed::Inst            0                       # Table walker requests started/completed, data/inst
system.cpu.dtb.walker.walkRequestOrigin_Completed::total            0                       # Table walker requests started/completed, data/inst
system.cpu.dtb.walker.walkRequestOrigin::total            0                       # Table walker requests started/completed, data/inst
system.cpu.dtb.walker.walks                         0                       # Table walker walks requested
system.cpu.dtb.write_accesses                       0                       # DTB write accesses
system.cpu.dtb.write_hits                           0                       # DTB write hits
system.cpu.dtb.write_misses                         0                       # DTB write misses
system.cpu.fetch2.amo_instructions                  0                       # Number of memory atomic instructions successfully decoded
system.cpu.fetch2.fp_instructions                   0                       # Number of floating point instructions successfully decoded
system.cpu.fetch2.int_instructions           42610185                       # Number of integer instructions successfully decoded
system.cpu.fetch2.load_instructions          43402447                       # Number of memory load instructions successfully decoded
system.cpu.fetch2.store_instructions         11001444                       # Number of memory store instructions successfully decoded
system.cpu.fetch2.vec_instructions                  0                       # Number of SIMD instructions successfully decoded
system.cpu.idleCycles                        38273629                       # Total number of cycles that the object has spent stopped
system.cpu.ipc                               0.584088                       # IPC: instructions per cycle
system.cpu.itb.accesses                             0                       # DTB accesses
system.cpu.itb.align_faults                         0                       # Number of TLB faults due to alignment restrictions
system.cpu.itb.domain_faults                        0                       # Number of TLB faults due to domain restrictions
system.cpu.itb.flush_entries                        0                       # Number of entries that have been flushed from TLB
system.cpu.itb.flush_tlb                            0                       # Number of times complete TLB was flushed
system.cpu.itb.flush_tlb_asid                       0                       # Number of times TLB was flushed by ASID
system.cpu.itb.flush_tlb_mva                        0                       # Number of times TLB was flushed by MVA
system.cpu.itb.flush_tlb_mva_asid                   0                       # Number of times TLB was flushed by MVA & ASID
system.cpu.itb.hits                                 0                       # DTB hits
system.cpu.itb.inst_accesses                        0                       # ITB inst accesses
system.cpu.itb.inst_hits                            0                       # ITB inst hits
system.cpu.itb.inst_misses                          0                       # ITB inst misses
system.cpu.itb.misses                               0                       # DTB misses
system.cpu.itb.perms_faults                         0                       # Number of TLB faults due to permissions restrictions
system.cpu.itb.prefetch_faults                      0                       # Number of TLB faults due to prefetch
system.cpu.itb.read_accesses                        0                       # DTB read accesses
system.cpu.itb.read_hits                            0                       # DTB read hits
system.cpu.itb.read_misses                          0                       # DTB read misses
system.cpu.itb.stage2_mmu.stage2_tlb.accesses            0                       # DTB accesses
system.cpu.itb.stage2_mmu.stage2_tlb.align_faults            0                       # Number of TLB faults due to alignment restrictions
system.cpu.itb.stage2_mmu.stage2_tlb.domain_faults            0                       # Number of TLB faults due to domain restrictions
system.cpu.itb.stage2_mmu.stage2_tlb.flush_entries            0                       # Number of entries that have been flushed from TLB
system.cpu.itb.stage2_mmu.stage2_tlb.flush_tlb            0                       # Number of times complete TLB was flushed
system.cpu.itb.stage2_mmu.stage2_tlb.flush_tlb_asid            0                       # Number of times TLB was flushed by ASID
system.cpu.itb.stage2_mmu.stage2_tlb.flush_tlb_mva            0                       # Number of times TLB was flushed by MVA
system.cpu.itb.stage2_mmu.stage2_tlb.flush_tlb_mva_asid            0                       # Number of times TLB was flushed by MVA & ASID
system.cpu.itb.stage2_mmu.stage2_tlb.hits            0                       # DTB hits
system.cpu.itb.stage2_mmu.stage2_tlb.inst_accesses            0                       # ITB inst accesses
system.cpu.itb.stage2_mmu.stage2_tlb.inst_hits            0                       # ITB inst hits
system.cpu.itb.stage2_mmu.stage2_tlb.inst_misses            0                       # ITB inst misses
system.cpu.itb.stage2_mmu.stage2_tlb.misses            0                       # DTB misses
system.cpu.itb.stage2_mmu.stage2_tlb.perms_faults            0                       # Number of TLB faults due to permissions restrictions
system.cpu.itb.stage2_mmu.stage2_tlb.prefetch_faults            0                       # Number of TLB faults due to prefetch
system.cpu.itb.stage2_mmu.stage2_tlb.read_accesses            0                       # DTB read accesses
system.cpu.itb.stage2_mmu.stage2_tlb.read_hits            0                       # DTB read hits
system.cpu.itb.stage2_mmu.stage2_tlb.read_misses            0                       # DTB read misses
system.cpu.itb.stage2_mmu.stage2_tlb.walker.walkRequestOrigin_Requested::Data            0                       # Table walker requests started/completed, data/inst
system.cpu.itb.stage2_mmu.stage2_tlb.walker.walkRequestOrigin_Requested::Inst            0                       # Table walker requests started/completed, data/inst
system.cpu.itb.stage2_mmu.stage2_tlb.walker.walkRequestOrigin_Requested::total            0                       # Table walker requests started/completed, data/inst
system.cpu.itb.stage2_mmu.stage2_tlb.walker.walkRequestOrigin_Completed::Data            0                       # Table walker requests started/completed, data/inst
system.cpu.itb.stage2_mmu.stage2_tlb.walker.walkRequestOrigin_Completed::Inst            0                       # Table walker requests started/completed, data/inst
system.cpu.itb.stage2_mmu.stage2_tlb.walker.walkRequestOrigin_Completed::total            0                       # Table walker requests started/completed, data/inst
system.cpu.itb.stage2_mmu.stage2_tlb.walker.walkRequestOrigin::total            0                       # Table walker requests started/completed, data/inst
system.cpu.itb.stage2_mmu.stage2_tlb.walker.walks            0                       # Table walker walks requested
system.cpu.itb.stage2_mmu.stage2_tlb.write_accesses            0                       # DTB write accesses
system.cpu.itb.stage2_mmu.stage2_tlb.write_hits            0                       # DTB write hits
system.cpu.itb.stage2_mmu.stage2_tlb.write_misses            0                       # DTB write misses
system.cpu.itb.walker.walkRequestOrigin_Requested::Data            0                       # Table walker requests started/completed, data/inst
system.cpu.itb.walker.walkRequestOrigin_Requested::Inst            0                       # Table walker requests started/completed, data/inst
system.cpu.itb.walker.walkRequestOrigin_Requested::total            0                       # Table walker requests started/completed, data/inst
system.cpu.itb.walker.walkRequestOrigin_Completed::Data            0                       # Table walker requests started/completed, data/inst
system.cpu.itb.walker.walkRequestOrigin_Completed::Inst            0                       # Table walker requests started/completed, data/inst
system.cpu.itb.walker.walkRequestOrigin_Completed::total            0                       # Table walker requests started/completed, data/inst
system.cpu.itb.walker.walkRequestOrigin::total            0                       # Table walker requests started/completed, data/inst
system.cpu.itb.walker.walks                         0                       # Table walker walks requested
system.cpu.itb.write_accesses                       0                       # DTB write accesses
system.cpu.itb.write_hits                           0                       # DTB write hits
system.cpu.itb.write_misses                         0                       # DTB write misses
system.cpu.numCycles                        171207151                       # number of cpu cycles simulated
system.cpu.numFetchSuspends                         0                       # Number of times Execute suspended instruction fetching
system.cpu.numWorkItemsCompleted                    0                       # number of work items this cpu completed
system.cpu.numWorkItemsStarted                      0                       # number of work items this cpu started
system.cpu.op_class_0::No_OpClass                   0      0.00%      0.00% # Class of committed instruction
system.cpu.op_class_0::IntAlu                46531400     46.44%     46.44% # Class of committed instruction
system.cpu.op_class_0::IntMult                  20720      0.02%     46.46% # Class of committed instruction
system.cpu.op_class_0::IntDiv                       0      0.00%     46.46% # Class of committed instruction
system.cpu.op_class_0::FloatAdd                     0      0.00%     46.46% # Class of committed instruction
system.cpu.op_class_0::FloatCmp                     0      0.00%     46.46% # Class of committed instruction
system.cpu.op_class_0::FloatCvt                     0      0.00%     46.46% # Class of committed instruction
system.cpu.op_class_0::FloatMult                    0      0.00%     46.46% # Class of committed instruction
system.cpu.op_class_0::FloatMultAcc                 0      0.00%     46.46% # Class of committed instruction
system.cpu.op_class_0::FloatDiv                     0      0.00%     46.46% # Class of committed instruction
system.cpu.op_class_0::FloatMisc                    0      0.00%     46.46% # Class of committed instruction
system.cpu.op_class_0::FloatSqrt                    0      0.00%     46.46% # Class of committed instruction
system.cpu.op_class_0::SimdAdd                      0      0.00%     46.46% # Class of committed instruction
system.cpu.op_class_0::SimdAddAcc                   0      0.00%     46.46% # Class of committed instruction
system.cpu.op_class_0::SimdAlu                      0      0.00%     46.46% # Class of committed instruction
system.cpu.op_class_0::SimdCmp                      0      0.00%     46.46% # Class of committed instruction
system.cpu.op_class_0::SimdCvt                      0      0.00%     46.46% # Class of committed instruction
system.cpu.op_class_0::SimdMisc                     0      0.00%     46.46% # Class of committed instruction
system.cpu.op_class_0::SimdMult                     0      0.00%     46.46% # Class of committed instruction
system.cpu.op_class_0::SimdMultAcc                  0      0.00%     46.46% # Class of committed instruction
system.cpu.op_class_0::SimdShift                    0      0.00%     46.46% # Class of committed instruction
system.cpu.op_class_0::SimdShiftAcc                 0      0.00%     46.46% # Class of committed instruction
system.cpu.op_class_0::SimdDiv                      0      0.00%     46.46% # Class of committed instruction
system.cpu.op_class_0::SimdSqrt                     0      0.00%     46.46% # Class of committed instruction
system.cpu.op_class_0::SimdFloatAdd                 0      0.00%     46.46% # Class of committed instruction
system.cpu.op_class_0::SimdFloatAlu                 0      0.00%     46.46% # Class of committed instruction
system.cpu.op_class_0::SimdFloatCmp                 0      0.00%     46.46% # Class of committed instruction
system.cpu.op_class_0::SimdFloatCvt                 0      0.00%     46.46% # Class of committed instruction
system.cpu.op_class_0::SimdFloatDiv                 0      0.00%     46.46% # Class of committed instruction
system.cpu.op_class_0::SimdFloatMisc               18      0.00%     46.46% # Class of committed instruction
system.cpu.op_class_0::SimdFloatMult                0      0.00%     46.46% # Class of committed instruction
system.cpu.op_class_0::SimdFloatMultAcc             0      0.00%     46.46% # Class of committed instruction
system.cpu.op_class_0::SimdFloatSqrt                0      0.00%     46.46% # Class of committed instruction
system.cpu.op_class_0::SimdReduceAdd                0      0.00%     46.46% # Class of committed instruction
system.cpu.op_class_0::SimdReduceAlu                0      0.00%     46.46% # Class of committed instruction
system.cpu.op_class_0::SimdReduceCmp                0      0.00%     46.46% # Class of committed instruction
system.cpu.op_class_0::SimdFloatReduceAdd            0      0.00%     46.46% # Class of committed instruction
system.cpu.op_class_0::SimdFloatReduceCmp            0      0.00%     46.46% # Class of committed instruction
system.cpu.op_class_0::SimdAes                      0      0.00%     46.46% # Class of committed instruction
system.cpu.op_class_0::SimdAesMix                   0      0.00%     46.46% # Class of committed instruction
system.cpu.op_class_0::SimdSha1Hash                 0      0.00%     46.46% # Class of committed instruction
system.cpu.op_class_0::SimdSha1Hash2                0      0.00%     46.46% # Class of committed instruction
system.cpu.op_class_0::SimdSha256Hash               0      0.00%     46.46% # Class of committed instruction
system.cpu.op_class_0::SimdSha256Hash2              0      0.00%     46.46% # Class of committed instruction
system.cpu.op_class_0::SimdShaSigma2                0      0.00%     46.46% # Class of committed instruction
system.cpu.op_class_0::SimdShaSigma3                0      0.00%     46.46% # Class of committed instruction
system.cpu.op_class_0::SimdPredAlu                  0      0.00%     46.46% # Class of committed instruction
system.cpu.op_class_0::MemRead               42693601     42.61%     89.07% # Class of committed instruction
system.cpu.op_class_0::MemWrite              10950624     10.93%    100.00% # Class of committed instruction
system.cpu.op_class_0::FloatMemRead                 0      0.00%    100.00% # Class of committed instruction
system.cpu.op_class_0::FloatMemWrite                0      0.00%    100.00% # Class of committed instruction
system.cpu.op_class_0::IprAccess                    0      0.00%    100.00% # Class of committed instruction
system.cpu.op_class_0::InstPrefetch                 0      0.00%    100.00% # Class of committed instruction
system.cpu.op_class_0::total                100196363                       # Class of committed instruction
system.cpu.tickCycles                       132933522                       # Number of cycles that the object actually ticked
system.cpu.workload.numSyscalls                    84                       # Number of system calls
system.membus.snoop_filter.hit_multi_requests            0                       # Number of requests hitting in the snoop filter with multiple (>1) holders of the requested data.
system.membus.snoop_filter.hit_multi_snoops            0                       # Number of snoops hitting in the snoop filter with multiple (>1) holders of the requested data.
system.membus.snoop_filter.hit_single_requests       167957                       # Number of requests hitting in the snoop filter with a single holder of the requested data.
system.membus.snoop_filter.hit_single_snoops            0                       # Number of snoops hitting in the snoop filter with a single holder of the requested data.
system.membus.snoop_filter.tot_requests        368957                       # Total number of requests made to the snoop filter.
system.membus.snoop_filter.tot_snoops               0                       # Total number of snoops made to the snoop filter.
system.tol2bus.snoop_filter.hit_multi_requests          675                       # Number of requests hitting in the snoop filter with multiple (>1) holders of the requested data.
system.tol2bus.snoop_filter.hit_multi_snoops            0                       # Number of snoops hitting in the snoop filter with multiple (>1) holders of the requested data.
system.tol2bus.snoop_filter.hit_single_requests       868379                       # Number of requests hitting in the snoop filter with a single holder of the requested data.
system.tol2bus.snoop_filter.hit_single_snoops          423                       # Number of snoops hitting in the snoop filter with a single holder of the requested data.
system.tol2bus.snoop_filter.tot_requests      1738168                       # Total number of requests made to the snoop filter.
system.tol2bus.snoop_filter.tot_snoops            423                       # Total number of snoops made to the snoop filter.
system.membus.pwrStateResidencyTicks::UNDEFINED  85603575500                       # Cumulative time (in ticks) in various power states
system.membus.trans_dist::ReadResp              64890                       # Transaction distribution
system.membus.trans_dist::WritebackDirty       111103                       # Transaction distribution
system.membus.trans_dist::CleanEvict            56847                       # Transaction distribution
system.membus.trans_dist::ReadExReq            136117                       # Transaction distribution
system.membus.trans_dist::ReadExResp           136116                       # Transaction distribution
system.membus.trans_dist::ReadSharedReq         64890                       # Transaction distribution
system.membus.pkt_count_system.l2.mem_side::system.mem_ctrls.port       569963                       # Packet count per connected master and slave (bytes)
system.membus.pkt_count::total                 569963                       # Packet count per connected master and slave (bytes)
system.membus.pkt_size_system.l2.mem_side::system.mem_ctrls.port     19974976                       # Cumulative packet size per connected master and slave (bytes)
system.membus.pkt_size::total                19974976                       # Cumulative packet size per connected master and slave (bytes)
system.membus.snoops                                0                       # Total snoops (count)
system.membus.snoopTraffic                          0                       # Total snoop traffic (bytes)
system.membus.snoop_fanout::samples            201007                       # Request fanout histogram
system.membus.snoop_fanout::mean                    0                       # Request fanout histogram
system.membus.snoop_fanout::stdev                   0                       # Request fanout histogram
system.membus.snoop_fanout::underflows              0      0.00%      0.00% # Request fanout histogram
system.membus.snoop_fanout::0                  201007    100.00%    100.00% # Request fanout histogram
system.membus.snoop_fanout::1                       0      0.00%    100.00% # Request fanout histogram
system.membus.snoop_fanout::overflows               0      0.00%    100.00% # Request fanout histogram
system.membus.snoop_fanout::min_value               0                       # Request fanout histogram
system.membus.snoop_fanout::max_value               0                       # Request fanout histogram
system.membus.snoop_fanout::total              201007                       # Request fanout histogram
system.membus.respLayer1.occupancy         1082675000                       # Layer occupancy (ticks)
system.membus.respLayer1.utilization              1.3                       # Layer utilization (%)
system.membus.reqLayer0.occupancy           854766500                       # Layer occupancy (ticks)
system.membus.reqLayer0.utilization               1.0                       # Layer utilization (%)
system.tol2bus.pwrStateResidencyTicks::UNDEFINED  85603575500                       # Cumulative time (in ticks) in various power states
system.tol2bus.trans_dist::ReadResp            548126                       # Transaction distribution
system.tol2bus.trans_dist::WritebackDirty       898583                       # Transaction distribution
system.tol2bus.trans_dist::WritebackClean          486                       # Transaction distribution
system.tol2bus.trans_dist::CleanEvict          137682                       # Transaction distribution
system.tol2bus.trans_dist::ReadExReq           321664                       # Transaction distribution
system.tol2bus.trans_dist::ReadExResp          321663                       # Transaction distribution
system.tol2bus.trans_dist::ReadCleanReq           873                       # Transaction distribution
system.tol2bus.trans_dist::ReadSharedReq       547253                       # Transaction distribution
system.tol2bus.pkt_count_system.cpu.icache.mem_side::system.l2.cpu_side         2232                       # Packet count per connected master and slave (bytes)
system.tol2bus.pkt_count_system.cpu.dcache.mem_side::system.l2.cpu_side      2605725                       # Packet count per connected master and slave (bytes)
system.tol2bus.pkt_count::total               2607957                       # Packet count per connected master and slave (bytes)
system.tol2bus.pkt_size_system.cpu.icache.mem_side::system.l2.cpu_side        86976                       # Cumulative packet size per connected master and slave (bytes)
system.tol2bus.pkt_size_system.cpu.dcache.mem_side::system.l2.cpu_side    106009344                       # Cumulative packet size per connected master and slave (bytes)
system.tol2bus.pkt_size::total              106096320                       # Cumulative packet size per connected master and slave (bytes)
system.tol2bus.snoops                          168373                       # Total snoops (count)
system.tol2bus.snoopTraffic                   7110592                       # Total snoop traffic (bytes)
system.tol2bus.snoop_fanout::samples          1038163                       # Request fanout histogram
system.tol2bus.snoop_fanout::mean            0.001059                       # Request fanout histogram
system.tol2bus.snoop_fanout::stdev           0.032519                       # Request fanout histogram
system.tol2bus.snoop_fanout::underflows             0      0.00%      0.00% # Request fanout histogram
system.tol2bus.snoop_fanout::0                1037064     99.89%     99.89% # Request fanout histogram
system.tol2bus.snoop_fanout::1                   1099      0.11%    100.00% # Request fanout histogram
system.tol2bus.snoop_fanout::2                      0      0.00%    100.00% # Request fanout histogram
system.tol2bus.snoop_fanout::overflows              0      0.00%    100.00% # Request fanout histogram
system.tol2bus.snoop_fanout::min_value              0                       # Request fanout histogram
system.tol2bus.snoop_fanout::max_value              1                       # Request fanout histogram
system.tol2bus.snoop_fanout::total            1038163                       # Request fanout histogram
system.tol2bus.reqLayer0.occupancy         1657050000                       # Layer occupancy (ticks)
system.tol2bus.reqLayer0.utilization              1.9                       # Layer utilization (%)
system.tol2bus.respLayer1.occupancy        1303375996                       # Layer occupancy (ticks)
system.tol2bus.respLayer1.utilization             1.5                       # Layer utilization (%)
system.tol2bus.respLayer0.occupancy           1309999                       # Layer occupancy (ticks)
system.tol2bus.respLayer0.utilization             0.0                       # Layer utilization (%)
system.voltage_domain.voltage                       1                       # Voltage in Volts
system.clk_domain.clock                          1000                       # Clock period in ticks
system.l2.pwrStateResidencyTicks::UNDEFINED  85603575500                       # Cumulative time (in ticks) in various power states
system.l2.demand_hits::.cpu.inst                  191                       # number of demand (read+write) hits
system.l2.demand_hits::.cpu.data               668588                       # number of demand (read+write) hits
system.l2.demand_hits::total                   668779                       # number of demand (read+write) hits
system.l2.overall_hits::.cpu.inst                 191                       # number of overall hits
system.l2.overall_hits::.cpu.data              668588                       # number of overall hits
system.l2.overall_hits::total                  668779                       # number of overall hits
system.l2.demand_misses::.cpu.inst                682                       # number of demand (read+write) misses
system.l2.demand_misses::.cpu.data             200329                       # number of demand (read+write) misses
system.l2.demand_misses::total                 201011                       # number of demand (read+write) misses
system.l2.overall_misses::.cpu.inst               682                       # number of overall misses
system.l2.overall_misses::.cpu.data            200329                       # number of overall misses
system.l2.overall_misses::total                201011                       # number of overall misses
system.l2.demand_miss_latency::.cpu.inst     53663500                       # number of demand (read+write) miss cycles
system.l2.demand_miss_latency::.cpu.data  16947276000                       # number of demand (read+write) miss cycles
system.l2.demand_miss_latency::total      17000939500                       # number of demand (read+write) miss cycles
system.l2.overall_miss_latency::.cpu.inst     53663500                       # number of overall miss cycles
system.l2.overall_miss_latency::.cpu.data  16947276000                       # number of overall miss cycles
system.l2.overall_miss_latency::total     17000939500                       # number of overall miss cycles
system.l2.demand_accesses::.cpu.inst              873                       # number of demand (read+write) accesses
system.l2.demand_accesses::.cpu.data           868917                       # number of demand (read+write) accesses
system.l2.demand_accesses::total               869790                       # number of demand (read+write) accesses
system.l2.overall_accesses::.cpu.inst             873                       # number of overall (read+write) accesses
system.l2.overall_accesses::.cpu.data          868917                       # number of overall (read+write) accesses
system.l2.overall_accesses::total              869790                       # number of overall (read+write) accesses
system.l2.demand_miss_rate::.cpu.inst        0.781214                       # miss rate for demand accesses
system.l2.demand_miss_rate::.cpu.data        0.230550                       # miss rate for demand accesses
system.l2.demand_miss_rate::total            0.231103                       # miss rate for demand accesses
system.l2.overall_miss_rate::.cpu.inst       0.781214                       # miss rate for overall accesses
system.l2.overall_miss_rate::.cpu.data       0.230550                       # miss rate for overall accesses
system.l2.overall_miss_rate::total           0.231103                       # miss rate for overall accesses
system.l2.demand_avg_miss_latency::.cpu.inst 78685.483871                       # average overall miss latency
system.l2.demand_avg_miss_latency::.cpu.data 84597.217577                       # average overall miss latency
system.l2.demand_avg_miss_latency::total 84577.159956                       # average overall miss latency
system.l2.overall_avg_miss_latency::.cpu.inst 78685.483871                       # average overall miss latency
system.l2.overall_avg_miss_latency::.cpu.data 84597.217577                       # average overall miss latency
system.l2.overall_avg_miss_latency::total 84577.159956                       # average overall miss latency
system.l2.blocked_cycles::no_mshrs                  0                       # number of cycles access was blocked
system.l2.blocked_cycles::no_targets                0                       # number of cycles access was blocked
system.l2.blocked::no_mshrs                         0                       # number of cycles access was blocked
system.l2.blocked::no_targets                       0                       # number of cycles access was blocked
system.l2.avg_blocked_cycles::no_mshrs            nan                       # average number of cycles each access was blocked
system.l2.avg_blocked_cycles::no_targets          nan                       # average number of cycles each access was blocked
system.l2.writebacks::.writebacks              111103                       # number of writebacks
system.l2.writebacks::total                    111103                       # number of writebacks
system.l2.demand_mshr_hits::.cpu.data               4                       # number of demand (read+write) MSHR hits
system.l2.demand_mshr_hits::total                   4                       # number of demand (read+write) MSHR hits
system.l2.overall_mshr_hits::.cpu.data              4                       # number of overall MSHR hits
system.l2.overall_mshr_hits::total                  4                       # number of overall MSHR hits
system.l2.demand_mshr_misses::.cpu.inst           682                       # number of demand (read+write) MSHR misses
system.l2.demand_mshr_misses::.cpu.data        200325                       # number of demand (read+write) MSHR misses
system.l2.demand_mshr_misses::total            201007                       # number of demand (read+write) MSHR misses
system.l2.overall_mshr_misses::.cpu.inst          682                       # number of overall MSHR misses
system.l2.overall_mshr_misses::.cpu.data       200325                       # number of overall MSHR misses
system.l2.overall_mshr_misses::total           201007                       # number of overall MSHR misses
system.l2.demand_mshr_miss_latency::.cpu.inst     46843500                       # number of demand (read+write) MSHR miss cycles
system.l2.demand_mshr_miss_latency::.cpu.data  14943680000                       # number of demand (read+write) MSHR miss cycles
system.l2.demand_mshr_miss_latency::total  14990523500                       # number of demand (read+write) MSHR miss cycles
system.l2.overall_mshr_miss_latency::.cpu.inst     46843500                       # number of overall MSHR miss cycles
system.l2.overall_mshr_miss_latency::.cpu.data  14943680000                       # number of overall MSHR miss cycles
system.l2.overall_mshr_miss_latency::total  14990523500                       # number of overall MSHR miss cycles
system.l2.demand_mshr_miss_rate::.cpu.inst     0.781214                       # mshr miss rate for demand accesses
system.l2.demand_mshr_miss_rate::.cpu.data     0.230546                       # mshr miss rate for demand accesses
system.l2.demand_mshr_miss_rate::total       0.231098                       # mshr miss rate for demand accesses
system.l2.overall_mshr_miss_rate::.cpu.inst     0.781214                       # mshr miss rate for overall accesses
system.l2.overall_mshr_miss_rate::.cpu.data     0.230546                       # mshr miss rate for overall accesses
system.l2.overall_mshr_miss_rate::total      0.231098                       # mshr miss rate for overall accesses
system.l2.demand_avg_mshr_miss_latency::.cpu.inst 68685.483871                       # average overall mshr miss latency
system.l2.demand_avg_mshr_miss_latency::.cpu.data 74597.179583                       # average overall mshr miss latency
system.l2.demand_avg_mshr_miss_latency::total 74577.121692                       # average overall mshr miss latency
system.l2.overall_avg_mshr_miss_latency::.cpu.inst 68685.483871                       # average overall mshr miss latency
system.l2.overall_avg_mshr_miss_latency::.cpu.data 74597.179583                       # average overall mshr miss latency
system.l2.overall_avg_mshr_miss_latency::total 74577.121692                       # average overall mshr miss latency
system.l2.replacements                         168373                       # number of replacements
system.l2.WritebackDirty_hits::.writebacks       787480                       # number of WritebackDirty hits
system.l2.WritebackDirty_hits::total           787480                       # number of WritebackDirty hits
system.l2.WritebackDirty_accesses::.writebacks       787480                       # number of WritebackDirty accesses(hits+misses)
system.l2.WritebackDirty_accesses::total       787480                       # number of WritebackDirty accesses(hits+misses)
system.l2.WritebackClean_hits::.writebacks          468                       # number of WritebackClean hits
system.l2.WritebackClean_hits::total              468                       # number of WritebackClean hits
system.l2.WritebackClean_accesses::.writebacks          468                       # number of WritebackClean accesses(hits+misses)
system.l2.WritebackClean_accesses::total          468                       # number of WritebackClean accesses(hits+misses)
system.l2.ReadExReq_hits::.cpu.data            185547                       # number of ReadExReq hits
system.l2.ReadExReq_hits::total                185547                       # number of ReadExReq hits
system.l2.ReadExReq_misses::.cpu.data          136117                       # number of ReadExReq misses
system.l2.ReadExReq_misses::total              136117                       # number of ReadExReq misses
system.l2.ReadExReq_miss_latency::.cpu.data  11812888500                       # number of ReadExReq miss cycles
system.l2.ReadExReq_miss_latency::total   11812888500                       # number of ReadExReq miss cycles
system.l2.ReadExReq_accesses::.cpu.data        321664                       # number of ReadExReq accesses(hits+misses)
system.l2.ReadExReq_accesses::total            321664                       # number of ReadExReq accesses(hits+misses)
system.l2.ReadExReq_miss_rate::.cpu.data     0.423165                       # miss rate for ReadExReq accesses
system.l2.ReadExReq_miss_rate::total         0.423165                       # miss rate for ReadExReq accesses
system.l2.ReadExReq_avg_miss_latency::.cpu.data 86784.813800                       # average ReadExReq miss latency
system.l2.ReadExReq_avg_miss_latency::total 86784.813800                       # average ReadExReq miss latency
system.l2.ReadExReq_mshr_misses::.cpu.data       136117                       # number of ReadExReq MSHR misses
system.l2.ReadExReq_mshr_misses::total         136117                       # number of ReadExReq MSHR misses
system.l2.ReadExReq_mshr_miss_latency::.cpu.data  10451728500                       # number of ReadExReq MSHR miss cycles
system.l2.ReadExReq_mshr_miss_latency::total  10451728500                       # number of ReadExReq MSHR miss cycles
system.l2.ReadExReq_mshr_miss_rate::.cpu.data     0.423165                       # mshr miss rate for ReadExReq accesses
system.l2.ReadExReq_mshr_miss_rate::total     0.423165                       # mshr miss rate for ReadExReq accesses
system.l2.ReadExReq_avg_mshr_miss_latency::.cpu.data 76784.887266                       # average ReadExReq mshr miss latency
system.l2.ReadExReq_avg_mshr_miss_latency::total 76784.887266                       # average ReadExReq mshr miss latency
system.l2.ReadCleanReq_hits::.cpu.inst            191                       # number of ReadCleanReq hits
system.l2.ReadCleanReq_hits::total                191                       # number of ReadCleanReq hits
system.l2.ReadCleanReq_misses::.cpu.inst          682                       # number of ReadCleanReq misses
system.l2.ReadCleanReq_misses::total              682                       # number of ReadCleanReq misses
system.l2.ReadCleanReq_miss_latency::.cpu.inst     53663500                       # number of ReadCleanReq miss cycles
system.l2.ReadCleanReq_miss_latency::total     53663500                       # number of ReadCleanReq miss cycles
system.l2.ReadCleanReq_accesses::.cpu.inst          873                       # number of ReadCleanReq accesses(hits+misses)
system.l2.ReadCleanReq_accesses::total            873                       # number of ReadCleanReq accesses(hits+misses)
system.l2.ReadCleanReq_miss_rate::.cpu.inst     0.781214                       # miss rate for ReadCleanReq accesses
system.l2.ReadCleanReq_miss_rate::total      0.781214                       # miss rate for ReadCleanReq accesses
system.l2.ReadCleanReq_avg_miss_latency::.cpu.inst 78685.483871                       # average ReadCleanReq miss latency
system.l2.ReadCleanReq_avg_miss_latency::total 78685.483871                       # average ReadCleanReq miss latency
system.l2.ReadCleanReq_mshr_misses::.cpu.inst          682                       # number of ReadCleanReq MSHR misses
system.l2.ReadCleanReq_mshr_misses::total          682                       # number of ReadCleanReq MSHR misses
system.l2.ReadCleanReq_mshr_miss_latency::.cpu.inst     46843500                       # number of ReadCleanReq MSHR miss cycles
system.l2.ReadCleanReq_mshr_miss_latency::total     46843500                       # number of ReadCleanReq MSHR miss cycles
system.l2.ReadCleanReq_mshr_miss_rate::.cpu.inst     0.781214                       # mshr miss rate for ReadCleanReq accesses
system.l2.ReadCleanReq_mshr_miss_rate::total     0.781214                       # mshr miss rate for ReadCleanReq accesses
system.l2.ReadCleanReq_avg_mshr_miss_latency::.cpu.inst 68685.483871                       # average ReadCleanReq mshr miss latency
system.l2.ReadCleanReq_avg_mshr_miss_latency::total 68685.483871                       # average ReadCleanReq mshr miss latency
system.l2.ReadSharedReq_hits::.cpu.data        483041                       # number of ReadSharedReq hits
system.l2.ReadSharedReq_hits::total            483041                       # number of ReadSharedReq hits
system.l2.ReadSharedReq_misses::.cpu.data        64212                       # number of ReadSharedReq misses
system.l2.ReadSharedReq_misses::total           64212                       # number of ReadSharedReq misses
system.l2.ReadSharedReq_miss_latency::.cpu.data   5134387500                       # number of ReadSharedReq miss cycles
system.l2.ReadSharedReq_miss_latency::total   5134387500                       # number of ReadSharedReq miss cycles
system.l2.ReadSharedReq_accesses::.cpu.data       547253                       # number of ReadSharedReq accesses(hits+misses)
system.l2.ReadSharedReq_accesses::total        547253                       # number of ReadSharedReq accesses(hits+misses)
system.l2.ReadSharedReq_miss_rate::.cpu.data     0.117335                       # miss rate for ReadSharedReq accesses
system.l2.ReadSharedReq_miss_rate::total     0.117335                       # miss rate for ReadSharedReq accesses
system.l2.ReadSharedReq_avg_miss_latency::.cpu.data 79959.937395                       # average ReadSharedReq miss latency
system.l2.ReadSharedReq_avg_miss_latency::total 79959.937395                       # average ReadSharedReq miss latency
system.l2.ReadSharedReq_mshr_hits::.cpu.data            4                       # number of ReadSharedReq MSHR hits
system.l2.ReadSharedReq_mshr_hits::total            4                       # number of ReadSharedReq MSHR hits
system.l2.ReadSharedReq_mshr_misses::.cpu.data        64208                       # number of ReadSharedReq MSHR misses
system.l2.ReadSharedReq_mshr_misses::total        64208                       # number of ReadSharedReq MSHR misses
system.l2.ReadSharedReq_mshr_miss_latency::.cpu.data   4491951500                       # number of ReadSharedReq MSHR miss cycles
system.l2.ReadSharedReq_mshr_miss_latency::total   4491951500                       # number of ReadSharedReq MSHR miss cycles
system.l2.ReadSharedReq_mshr_miss_rate::.cpu.data     0.117328                       # mshr miss rate for ReadSharedReq accesses
system.l2.ReadSharedReq_mshr_miss_rate::total     0.117328                       # mshr miss rate for ReadSharedReq accesses
system.l2.ReadSharedReq_avg_mshr_miss_latency::.cpu.data 69959.374221                       # average ReadSharedReq mshr miss latency
system.l2.ReadSharedReq_avg_mshr_miss_latency::total 69959.374221                       # average ReadSharedReq mshr miss latency
system.l2.tags.pwrStateResidencyTicks::UNDEFINED  85603575500                       # Cumulative time (in ticks) in various power states
system.l2.tags.tagsinuse                 31918.771974                       # Cycle average of tags in use
system.l2.tags.total_refs                     1737488                       # Total number of references to valid blocks.
system.l2.tags.sampled_refs                    201141                       # Sample count of references to valid blocks.
system.l2.tags.avg_refs                      8.638159                       # Average number of references to valid blocks.
system.l2.tags.warmup_cycle                     77000                       # Cycle when the warmup percentage was hit.
system.l2.tags.occ_blocks::.writebacks      43.659019                       # Average occupied blocks per requestor
system.l2.tags.occ_blocks::.cpu.inst        90.667865                       # Average occupied blocks per requestor
system.l2.tags.occ_blocks::.cpu.data     31784.445091                       # Average occupied blocks per requestor
system.l2.tags.occ_percent::.writebacks      0.001332                       # Average percentage of cache occupancy
system.l2.tags.occ_percent::.cpu.inst        0.002767                       # Average percentage of cache occupancy
system.l2.tags.occ_percent::.cpu.data        0.969984                       # Average percentage of cache occupancy
system.l2.tags.occ_percent::total            0.974084                       # Average percentage of cache occupancy
system.l2.tags.occ_task_id_blocks::1024         32768                       # Occupied blocks per task id
system.l2.tags.age_task_id_blocks_1024::0           87                       # Occupied blocks per task id
system.l2.tags.age_task_id_blocks_1024::1          111                       # Occupied blocks per task id
system.l2.tags.age_task_id_blocks_1024::2         1182                       # Occupied blocks per task id
system.l2.tags.age_task_id_blocks_1024::3        15474                       # Occupied blocks per task id
system.l2.tags.age_task_id_blocks_1024::4        15914                       # Occupied blocks per task id
system.l2.tags.occ_task_id_percent::1024            1                       # Percentage of cache occupancy per task id
system.l2.tags.tag_accesses                  14101085                       # Number of tag accesses
system.l2.tags.data_accesses                 14101085                       # Number of data accesses
system.cpu_voltage_domain.voltage                   1                       # Voltage in Volts
system.mem_ctrls.pwrStateResidencyTicks::UNDEFINED  85603575500                       # Cumulative time (in ticks) in various power states
system.mem_ctrls.bytes_read::.cpu.inst          43648                       # Number of bytes read from this memory
system.mem_ctrls.bytes_read::.cpu.data       12820736                       # Number of bytes read from this memory
system.mem_ctrls.bytes_read::total           12864384                       # Number of bytes read from this memory
system.mem_ctrls.bytes_inst_read::.cpu.inst        43648                       # Number of instructions bytes read from this memory
system.mem_ctrls.bytes_inst_read::total         43648                       # Number of instructions bytes read from this memory
system.mem_ctrls.bytes_written::.writebacks      7110592                       # Number of bytes written to this memory
system.mem_ctrls.bytes_written::total         7110592                       # Number of bytes written to this memory
system.mem_ctrls.num_reads::.cpu.inst             682                       # Number of read requests responded to by this memory
system.mem_ctrls.num_reads::.cpu.data          200324                       # Number of read requests responded to by this memory
system.mem_ctrls.num_reads::total              201006                       # Number of read requests responded to by this memory
system.mem_ctrls.num_writes::.writebacks       111103                       # Number of write requests responded to by this memory
system.mem_ctrls.num_writes::total             111103                       # Number of write requests responded to by this memory
system.mem_ctrls.bw_read::.cpu.inst            509885                       # Total read bandwidth from this memory (bytes/s)
system.mem_ctrls.bw_read::.cpu.data         149768697                       # Total read bandwidth from this memory (bytes/s)
system.mem_ctrls.bw_read::total             150278583                       # Total read bandwidth from this memory (bytes/s)
system.mem_ctrls.bw_inst_read::.cpu.inst       509885                       # Instruction read bandwidth from this memory (bytes/s)
system.mem_ctrls.bw_inst_read::total           509885                       # Instruction read bandwidth from this memory (bytes/s)
system.mem_ctrls.bw_write::.writebacks       83064194                       # Write bandwidth from this memory (bytes/s)
system.mem_ctrls.bw_write::total             83064194                       # Write bandwidth from this memory (bytes/s)
system.mem_ctrls.bw_total::.writebacks       83064194                       # Total bandwidth to/from this memory (bytes/s)
system.mem_ctrls.bw_total::.cpu.inst           509885                       # Total bandwidth to/from this memory (bytes/s)
system.mem_ctrls.bw_total::.cpu.data        149768697                       # Total bandwidth to/from this memory (bytes/s)
system.mem_ctrls.bw_total::total            233342777                       # Total bandwidth to/from this memory (bytes/s)
system.mem_ctrls.avgPriority_.writebacks::samples    111103.00                       # Average QoS priority value for accepted requests
system.mem_ctrls.avgPriority_.cpu.inst::samples       682.00                       # Average QoS priority value for accepted requests
system.mem_ctrls.avgPriority_.cpu.data::samples    200287.00                       # Average QoS priority value for accepted requests
system.mem_ctrls.priorityMinLatency      0.000000018750                       # per QoS priority minimum request to response latency (s)
system.mem_ctrls.priorityMaxLatency      0.003136180500                       # per QoS priority maximum request to response latency (s)
system.mem_ctrls.numReadWriteTurnArounds         6649                       # Number of turnarounds from READ to WRITE
system.mem_ctrls.numWriteReadTurnArounds         6649                       # Number of turnarounds from WRITE to READ
system.mem_ctrls.numStayReadState              524693                       # Number of times bus staying in READ state
system.mem_ctrls.numStayWriteState             104583                       # Number of times bus staying in WRITE state
system.mem_ctrls.readReqs                      201007                       # Number of read requests accepted
system.mem_ctrls.writeReqs                     111103                       # Number of write requests accepted
system.mem_ctrls.readBursts                    201007                       # Number of DRAM read bursts, including those serviced by the write queue
system.mem_ctrls.writeBursts                   111103                       # Number of DRAM write bursts, including those merged in the write queue
system.mem_ctrls.servicedByWrQ                     38                       # Number of DRAM read bursts serviced by the write queue
system.mem_ctrls.mergedWrBursts                     0                       # Number of DRAM write bursts merged with an existing one
system.mem_ctrls.neitherReadNorWriteReqs            0                       # Number of requests that are neither read nor write
system.mem_ctrls.perBankRdBursts::0             12840                       # Per bank write bursts
system.mem_ctrls.perBankRdBursts::1             12744                       # Per bank write bursts
system.mem_ctrls.perBankRdBursts::2             12826                       # Per bank write bursts
system.mem_ctrls.perBankRdBursts::3             12540                       # Per bank write bursts
system.mem_ctrls.perBankRdBursts::4             12512                       # Per bank write bursts
system.mem_ctrls.perBankRdBursts::5             12341                       # Per bank write bursts
system.mem_ctrls.perBankRdBursts::6             12293                       # Per bank write bursts
system.mem_ctrls.perBankRdBursts::7             12468                       # Per bank write bursts
system.mem_ctrls.perBankRdBursts::8             12454                       # Per bank write bursts
system.mem_ctrls.perBankRdBursts::9             12398                       # Per bank write bursts
system.mem_ctrls.perBankRdBursts::10            12451                       # Per bank write bursts
system.mem_ctrls.perBankRdBursts::11            12467                       # Per bank write bursts
system.mem_ctrls.perBankRdBursts::12            12639                       # Per bank write bursts
system.mem_ctrls.perBankRdBursts::13            12715                       # Per bank write bursts
system.mem_ctrls.perBankRdBursts::14            12669                       # Per bank write bursts
system.mem_ctrls.perBankRdBursts::15            12612                       # Per bank write bursts
system.mem_ctrls.perBankWrBursts::0              7122                       # Per bank write bursts
system.mem_ctrls.perBankWrBursts::1              7142                       # Per bank write bursts
system.mem_ctrls.perBankWrBursts::2              7165                       # Per bank write bursts
system.mem_ctrls.perBankWrBursts::3              6976                       # Per bank write bursts
system.mem_ctrls.perBankWrBursts::4              6978                       # Per bank write bursts
system.mem_ctrls.perBankWrBursts::5              6932                       # Per bank write bursts
system.mem_ctrls.perBankWrBursts::6              6829                       # Per bank write bursts
system.mem_ctrls.perBankWrBursts::7              6802                       # Per bank write bursts
system.mem_ctrls.perBankWrBursts::8              6794                       # Per bank write bursts
system.mem_ctrls.perBankWrBursts::9              6776                       # Per bank write bursts
system.mem_ctrls.perBankWrBursts::10             6863                       # Per bank write bursts
system.mem_ctrls.perBankWrBursts::11             6810                       # Per bank write bursts
system.mem_ctrls.perBankWrBursts::12             6898                       # Per bank write bursts
system.mem_ctrls.perBankWrBursts::13             7005                       # Per bank write bursts
system.mem_ctrls.perBankWrBursts::14             7019                       # Per bank write bursts
system.mem_ctrls.perBankWrBursts::15             6969                       # Per bank write bursts
system.mem_ctrls.avgRdQLen                       1.08                       # Average read queue length when enqueuing
system.mem_ctrls.avgWrQLen                      24.78                       # Average write queue length when enqueuing
system.mem_ctrls.totQLat                   2929835250                       # Total ticks spent queuing
system.mem_ctrls.totBusLat                 1004845000                       # Total ticks spent in databus transfers
system.mem_ctrls.totMemAccLat              6698004000                       # Total ticks spent from burst creation until serviced by the DRAM
system.mem_ctrls.avgQLat                     14578.54                       # Average queueing delay per DRAM burst
system.mem_ctrls.avgBusLat                    5000.00                       # Average bus latency per DRAM burst
system.mem_ctrls.avgMemAccLat                33328.54                       # Average memory access latency per DRAM burst
system.mem_ctrls.numRdRetry                         0                       # Number of times read queue was full causing retry
system.mem_ctrls.numWrRetry                         0                       # Number of times write queue was full causing retry
system.mem_ctrls.readRowHits                   137764                       # Number of row buffer hits during reads
system.mem_ctrls.writeRowHits                   69573                       # Number of row buffer hits during writes
system.mem_ctrls.readRowHitRate                 68.55                       # Row buffer hit rate for reads
system.mem_ctrls.writeRowHitRate                62.62                       # Row buffer hit rate for writes
system.mem_ctrls.readPktSize::0                     0                       # Read request sizes (log2)
system.mem_ctrls.readPktSize::1                     0                       # Read request sizes (log2)
system.mem_ctrls.readPktSize::2                     0                       # Read request sizes (log2)
system.mem_ctrls.readPktSize::3                     0                       # Read request sizes (log2)
system.mem_ctrls.readPktSize::4                     0                       # Read request sizes (log2)
system.mem_ctrls.readPktSize::5                     0                       # Read request sizes (log2)
system.mem_ctrls.readPktSize::6                201007                       # Read request sizes (log2)
system.mem_ctrls.writePktSize::0                    0                       # Write request sizes (log2)
system.mem_ctrls.writePktSize::1                    0                       # Write request sizes (log2)
system.mem_ctrls.writePktSize::2                    0                       # Write request sizes (log2)
system.mem_ctrls.writePktSize::3                    0                       # Write request sizes (log2)
system.mem_ctrls.writePktSize::4                    0                       # Write request sizes (log2)
system.mem_ctrls.writePktSize::5                    0                       # Write request sizes (log2)
system.mem_ctrls.writePktSize::6               111103                       # Write request sizes (log2)
system.mem_ctrls.rdQLenPdf::0                  139463                       # What read queue length does an incoming req see
system.mem_ctrls.rdQLenPdf::1                   59019                       # What read queue length does an incoming req see
system.mem_ctrls.rdQLenPdf::2                    2206                       # What read queue length does an incoming req see
system.mem_ctrls.rdQLenPdf::3                     280                       # What read queue length does an incoming req see
system.mem_ctrls.rdQLenPdf::4                       1                       # What read queue length does an incoming req see
system.mem_ctrls.rdQLenPdf::5                       0                       # What read queue length does an incoming req see
system.mem_ctrls.rdQLenPdf::6                       0                       # What read queue length does an incoming req see
system.mem_ctrls.rdQLenPdf::7                       0                       # What read queue length does an incoming req see
system.mem_ctrls.rdQLenPdf::8                       0                       # What read queue length does an incoming req see
system.mem_ctrls.rdQLenPdf::9                       0                       # What read queue length does an incoming req see
system.mem_ctrls.rdQLenPdf::10                      0                       # What read queue length does an incoming req see
system.mem_ctrls.rdQLenPdf::11                      0                       # What read queue length does an incoming req see
system.mem_ctrls.rdQLenPdf::12                      0                       # What read queue length does an incoming req see
system.mem_ctrls.rdQLenPdf::13                      0                       # What read queue length does an incoming req see
system.mem_ctrls.rdQLenPdf::14                      0                       # What read queue length does an incoming req see
system.mem_ctrls.rdQLenPdf::15                      0                       # What read queue length does an incoming req see
system.mem_ctrls.rdQLenPdf::16                      0                       # What read queue length does an incoming req see
system.mem_ctrls.rdQLenPdf::17                      0                       # What read queue length does an incoming req see
system.mem_ctrls.rdQLenPdf::18                      0                       # What read queue length does an incoming req see
system.mem_ctrls.rdQLenPdf::19                      0                       # What read queue length does an incoming req see
system.mem_ctrls.rdQLenPdf::20                      0                       # What read queue length does an incoming req see
system.mem_ctrls.rdQLenPdf::21                      0                       # What read queue length does an incoming req see
system.mem_ctrls.rdQLenPdf::22                      0                       # What read queue length does an incoming req see
system.mem_ctrls.rdQLenPdf::23                      0                       # What read queue length does an incoming req see
system.mem_ctrls.rdQLenPdf::24                      0                       # What read queue length does an incoming req see
system.mem_ctrls.rdQLenPdf::25                      0                       # What read queue length does an incoming req see
system.mem_ctrls.rdQLenPdf::26                      0                       # What read queue length does an incoming req see
system.mem_ctrls.rdQLenPdf::27                      0                       # What read queue length does an incoming req see
system.mem_ctrls.rdQLenPdf::28                      0                       # What read queue length does an incoming req see
system.mem_ctrls.rdQLenPdf::29                      0                       # What read queue length does an incoming req see
system.mem_ctrls.rdQLenPdf::30                      0                       # What read queue length does an incoming req see
system.mem_ctrls.rdQLenPdf::31                      0                       # What read queue length does an incoming req see
system.mem_ctrls.wrQLenPdf::0                       1                       # What write queue length does an incoming req see
system.mem_ctrls.wrQLenPdf::1                       1                       # What write queue length does an incoming req see
system.mem_ctrls.wrQLenPdf::2                       1                       # What write queue length does an incoming req see
system.mem_ctrls.wrQLenPdf::3                       1                       # What write queue length does an incoming req see
system.mem_ctrls.wrQLenPdf::4                       1                       # What write queue length does an incoming req see
system.mem_ctrls.wrQLenPdf::5                       1                       # What write queue length does an incoming req see
system.mem_ctrls.wrQLenPdf::6                       1                       # What write queue length does an incoming req see
system.mem_ctrls.wrQLenPdf::7                       1                       # What write queue length does an incoming req see
system.mem_ctrls.wrQLenPdf::8                       1                       # What write queue length does an incoming req see
system.mem_ctrls.wrQLenPdf::9                       1                       # What write queue length does an incoming req see
system.mem_ctrls.wrQLenPdf::10                      1                       # What write queue length does an incoming req see
system.mem_ctrls.wrQLenPdf::11                      1                       # What write queue length does an incoming req see
system.mem_ctrls.wrQLenPdf::12                      1                       # What write queue length does an incoming req see
system.mem_ctrls.wrQLenPdf::13                      1                       # What write queue length does an incoming req see
system.mem_ctrls.wrQLenPdf::14                      1                       # What write queue length does an incoming req see
system.mem_ctrls.wrQLenPdf::15                   2235                       # What write queue length does an incoming req see
system.mem_ctrls.wrQLenPdf::16                   2274                       # What write queue length does an incoming req see
system.mem_ctrls.wrQLenPdf::17                   5580                       # What write queue length does an incoming req see
system.mem_ctrls.wrQLenPdf::18                   6668                       # What write queue length does an incoming req see
system.mem_ctrls.wrQLenPdf::19                   6693                       # What write queue length does an incoming req see
system.mem_ctrls.wrQLenPdf::20                   6725                       # What write queue length does an incoming req see
system.mem_ctrls.wrQLenPdf::21                   6692                       # What write queue length does an incoming req see
system.mem_ctrls.wrQLenPdf::22                   6704                       # What write queue length does an incoming req see
system.mem_ctrls.wrQLenPdf::23                   6694                       # What write queue length does an incoming req see
system.mem_ctrls.wrQLenPdf::24                   6736                       # What write queue length does an incoming req see
system.mem_ctrls.wrQLenPdf::25                   6755                       # What write queue length does an incoming req see
system.mem_ctrls.wrQLenPdf::26                   7147                       # What write queue length does an incoming req see
system.mem_ctrls.wrQLenPdf::27                   6677                       # What write queue length does an incoming req see
system.mem_ctrls.wrQLenPdf::28                   6833                       # What write queue length does an incoming req see
system.mem_ctrls.wrQLenPdf::29                   6691                       # What write queue length does an incoming req see
system.mem_ctrls.wrQLenPdf::30                   6667                       # What write queue length does an incoming req see
system.mem_ctrls.wrQLenPdf::31                   6663                       # What write queue length does an incoming req see
system.mem_ctrls.wrQLenPdf::32                   6649                       # What write queue length does an incoming req see
system.mem_ctrls.wrQLenPdf::33                      4                       # What write queue length does an incoming req see
system.mem_ctrls.wrQLenPdf::34                      1                       # What write queue length does an incoming req see
system.mem_ctrls.wrQLenPdf::35                      0                       # What write queue length does an incoming req see
system.mem_ctrls.wrQLenPdf::36                      0                       # What write queue length does an incoming req see
system.mem_ctrls.wrQLenPdf::37                      0                       # What write queue length does an incoming req see
system.mem_ctrls.wrQLenPdf::38                      0                       # What write queue length does an incoming req see
system.mem_ctrls.wrQLenPdf::39                      0                       # What write queue length does an incoming req see
system.mem_ctrls.wrQLenPdf::40                      0                       # What write queue length does an incoming req see
system.mem_ctrls.wrQLenPdf::41                      0                       # What write queue length does an incoming req see
system.mem_ctrls.wrQLenPdf::42                      0                       # What write queue length does an incoming req see
system.mem_ctrls.wrQLenPdf::43                      0                       # What write queue length does an incoming req see
system.mem_ctrls.wrQLenPdf::44                      0                       # What write queue length does an incoming req see
system.mem_ctrls.wrQLenPdf::45                      0                       # What write queue length does an incoming req see
system.mem_ctrls.wrQLenPdf::46                      0                       # What write queue length does an incoming req see
system.mem_ctrls.wrQLenPdf::47                      0                       # What write queue length does an incoming req see
system.mem_ctrls.wrQLenPdf::48                      0                       # What write queue length does an incoming req see
system.mem_ctrls.wrQLenPdf::49                      0                       # What write queue length does an incoming req see
system.mem_ctrls.wrQLenPdf::50                      0                       # What write queue length does an incoming req see
system.mem_ctrls.wrQLenPdf::51                      0                       # What write queue length does an incoming req see
system.mem_ctrls.wrQLenPdf::52                      0                       # What write queue length does an incoming req see
system.mem_ctrls.wrQLenPdf::53                      0                       # What write queue length does an incoming req see
system.mem_ctrls.wrQLenPdf::54                      0                       # What write queue length does an incoming req see
system.mem_ctrls.wrQLenPdf::55                      0                       # What write queue length does an incoming req see
system.mem_ctrls.wrQLenPdf::56                      0                       # What write queue length does an incoming req see
system.mem_ctrls.wrQLenPdf::57                      0                       # What write queue length does an incoming req see
system.mem_ctrls.wrQLenPdf::58                      0                       # What write queue length does an incoming req see
system.mem_ctrls.wrQLenPdf::59                      0                       # What write queue length does an incoming req see
system.mem_ctrls.wrQLenPdf::60                      0                       # What write queue length does an incoming req see
system.mem_ctrls.wrQLenPdf::61                      0                       # What write queue length does an incoming req see
system.mem_ctrls.wrQLenPdf::62                      0                       # What write queue length does an incoming req see
system.mem_ctrls.wrQLenPdf::63                      0                       # What write queue length does an incoming req see
system.mem_ctrls.bytesPerActivate::samples       104703                       # Bytes accessed per row activation
system.mem_ctrls.bytesPerActivate::mean    190.734707                       # Bytes accessed per row activation
system.mem_ctrls.bytesPerActivate::gmean   111.305528                       # Bytes accessed per row activation
system.mem_ctrls.bytesPerActivate::stdev   255.510914                       # Bytes accessed per row activation
system.mem_ctrls.bytesPerActivate::0-127        69496     66.37%     66.37% # Bytes accessed per row activation
system.mem_ctrls.bytesPerActivate::128-255        14002     13.37%     79.75% # Bytes accessed per row activation
system.mem_ctrls.bytesPerActivate::256-383         2461      2.35%     82.10% # Bytes accessed per row activation
system.mem_ctrls.bytesPerActivate::384-511         1499      1.43%     83.53% # Bytes accessed per row activation
system.mem_ctrls.bytesPerActivate::512-639        10046      9.59%     93.12% # Bytes accessed per row activation
system.mem_ctrls.bytesPerActivate::640-767          729      0.70%     93.82% # Bytes accessed per row activation
system.mem_ctrls.bytesPerActivate::768-895          399      0.38%     94.20% # Bytes accessed per row activation
system.mem_ctrls.bytesPerActivate::896-1023          355      0.34%     94.54% # Bytes accessed per row activation
system.mem_ctrls.bytesPerActivate::1024-1151         5716      5.46%    100.00% # Bytes accessed per row activation
system.mem_ctrls.bytesPerActivate::total       104703                       # Bytes accessed per row activation
system.mem_ctrls.rdPerTurnAround::samples         6649                       # Reads before turning the bus around for writes
system.mem_ctrls.rdPerTurnAround::mean      30.224244                       # Reads before turning the bus around for writes
system.mem_ctrls.rdPerTurnAround::gmean     23.754801                       # Reads before turning the bus around for writes
system.mem_ctrls.rdPerTurnAround::stdev     52.303915                       # Reads before turning the bus around for writes
system.mem_ctrls.rdPerTurnAround::0-127          6484     97.52%     97.52% # Reads before turning the bus around for writes
system.mem_ctrls.rdPerTurnAround::128-255           35      0.53%     98.04% # Reads before turning the bus around for writes
system.mem_ctrls.rdPerTurnAround::256-383          127      1.91%     99.95% # Reads before turning the bus around for writes
system.mem_ctrls.rdPerTurnAround::512-639            1      0.02%     99.97% # Reads before turning the bus around for writes
system.mem_ctrls.rdPerTurnAround::1664-1791            1      0.02%     99.98% # Reads before turning the bus around for writes
system.mem_ctrls.rdPerTurnAround::2432-2559            1      0.02%    100.00% # Reads before turning the bus around for writes
system.mem_ctrls.rdPerTurnAround::total          6649                       # Reads before turning the bus around for writes
system.mem_ctrls.wrPerTurnAround::samples         6649                       # Writes before turning the bus around for reads
system.mem_ctrls.wrPerTurnAround::mean      16.706272                       # Writes before turning the bus around for reads
[...]
system.cpu.icache.ReadReq_avg_miss_latency::.cpu.inst 66294.959908                       # average ReadReq miss latency
system.cpu.icache.ReadReq_avg_miss_latency::total 66294.959908                       # average ReadReq miss latency
system.cpu.icache.ReadReq_mshr_misses::.cpu.inst          873                       # number of ReadReq MSHR misses
system.cpu.icache.ReadReq_mshr_misses::total          873                       # number of ReadReq MSHR misses
system.cpu.icache.ReadReq_mshr_miss_latency::.cpu.inst     57002500                       # number of ReadReq MSHR miss cycles
system.cpu.icache.ReadReq_mshr_miss_latency::total     57002500                       # number of ReadReq MSHR miss cycles
system.cpu.icache.ReadReq_mshr_miss_rate::.cpu.inst     0.000090                       # mshr miss rate for ReadReq accesses
system.cpu.icache.ReadReq_mshr_miss_rate::total     0.000090                       # mshr miss rate for ReadReq accesses
system.cpu.icache.ReadReq_avg_mshr_miss_latency::.cpu.inst 65294.959908                       # average ReadReq mshr miss latency
system.cpu.icache.ReadReq_avg_mshr_miss_latency::total 65294.959908                       # average ReadReq mshr miss latency
system.cpu.icache.tags.pwrStateResidencyTicks::UNDEFINED  85603575500                       # Cumulative time (in ticks) in various power states
system.cpu.icache.tags.tagsinuse           311.893944                       # Cycle average of tags in use
system.cpu.icache.tags.total_refs             9663728                       # Total number of references to valid blocks.
system.cpu.icache.tags.sampled_refs               873                       # Sample count of references to valid blocks.
system.cpu.icache.tags.avg_refs          11069.562428                       # Average number of references to valid blocks.
system.cpu.icache.tags.warmup_cycle             87500                       # Cycle when the warmup percentage was hit.
system.cpu.icache.tags.occ_blocks::.cpu.inst   311.893944                       # Average occupied blocks per requestor
system.cpu.icache.tags.occ_percent::.cpu.inst     0.609168                       # Average percentage of cache occupancy
system.cpu.icache.tags.occ_percent::total     0.609168                       # Average percentage of cache occupancy
system.cpu.icache.tags.occ_task_id_blocks::1024          387                       # Occupied blocks per task id
system.cpu.icache.tags.age_task_id_blocks_1024::3          106                       # Occupied blocks per task id
system.cpu.icache.tags.age_task_id_blocks_1024::4          281                       # Occupied blocks per task id
system.cpu.icache.tags.occ_task_id_percent::1024     0.755859                       # Percentage of cache occupancy per task id
system.cpu.icache.tags.tag_accesses           9664601                       # Number of tag accesses
system.cpu.icache.tags.data_accesses          9664601                       # Number of data accesses
system.cpu.dtb.walker.pwrStateResidencyTicks::UNDEFINED  85603575500                       # Cumulative time (in ticks) in various power states
system.cpu.dtb.stage2_mmu.stage2_tlb.walker.pwrStateResidencyTicks::UNDEFINED  85603575500                       # Cumulative time (in ticks) in various power states
system.cpu.dcache.pwrStateResidencyTicks::UNDEFINED  85603575500                       # Cumulative time (in ticks) in various power states
system.cpu.dcache.demand_hits::.cpu.data     51146241                       # number of demand (read+write) hits
system.cpu.dcache.demand_hits::total         51146241                       # number of demand (read+write) hits
system.cpu.dcache.overall_hits::.cpu.data     51146711                       # number of overall hits
system.cpu.dcache.overall_hits::total        51146711                       # number of overall hits
system.cpu.dcache.demand_misses::.cpu.data       922970                       # number of demand (read+write) misses
system.cpu.dcache.demand_misses::total         922970                       # number of demand (read+write) misses
system.cpu.dcache.overall_misses::.cpu.data       930918                       # number of overall misses
system.cpu.dcache.overall_misses::total        930918                       # number of overall misses
system.cpu.dcache.demand_miss_latency::.cpu.data  27203476493                       # number of demand (read+write) miss cycles
system.cpu.dcache.demand_miss_latency::total  27203476493                       # number of demand (read+write) miss cycles
system.cpu.dcache.overall_miss_latency::.cpu.data  27203476493                       # number of overall miss cycles
system.cpu.dcache.overall_miss_latency::total  27203476493                       # number of overall miss cycles
system.cpu.dcache.demand_accesses::.cpu.data     52069211                       # number of demand (read+write) accesses
system.cpu.dcache.demand_accesses::total     52069211                       # number of demand (read+write) accesses
system.cpu.dcache.overall_accesses::.cpu.data     52077629                       # number of overall (read+write) accesses
system.cpu.dcache.overall_accesses::total     52077629                       # number of overall (read+write) accesses
system.cpu.dcache.demand_miss_rate::.cpu.data     0.017726                       # miss rate for demand accesses
system.cpu.dcache.demand_miss_rate::total     0.017726                       # miss rate for demand accesses
system.cpu.dcache.overall_miss_rate::.cpu.data     0.017876                       # miss rate for overall accesses
system.cpu.dcache.overall_miss_rate::total     0.017876                       # miss rate for overall accesses
system.cpu.dcache.demand_avg_miss_latency::.cpu.data 29473.846921                       # average overall miss latency
system.cpu.dcache.demand_avg_miss_latency::total 29473.846921                       # average overall miss latency
system.cpu.dcache.overall_avg_miss_latency::.cpu.data 29222.204848                       # average overall miss latency
system.cpu.dcache.overall_avg_miss_latency::total 29222.204848                       # average overall miss latency
system.cpu.dcache.blocked_cycles::no_mshrs       204335                       # number of cycles access was blocked
system.cpu.dcache.blocked_cycles::no_targets            0                       # number of cycles access was blocked
system.cpu.dcache.blocked::no_mshrs              3614                       # number of cycles access was blocked
system.cpu.dcache.blocked::no_targets               0                       # number of cycles access was blocked
system.cpu.dcache.avg_blocked_cycles::no_mshrs    56.539845                       # average number of cycles each access was blocked
system.cpu.dcache.avg_blocked_cycles::no_targets          nan                       # average number of cycles each access was blocked
system.cpu.dcache.writebacks::.writebacks       787480                       # number of writebacks
system.cpu.dcache.writebacks::total            787480                       # number of writebacks
system.cpu.dcache.demand_mshr_hits::.cpu.data        61996                       # number of demand (read+write) MSHR hits
system.cpu.dcache.demand_mshr_hits::total        61996                       # number of demand (read+write) MSHR hits
system.cpu.dcache.overall_mshr_hits::.cpu.data        61996                       # number of overall MSHR hits
system.cpu.dcache.overall_mshr_hits::total        61996                       # number of overall MSHR hits
system.cpu.dcache.demand_mshr_misses::.cpu.data       860974                       # number of demand (read+write) MSHR misses
system.cpu.dcache.demand_mshr_misses::total       860974                       # number of demand (read+write) MSHR misses
system.cpu.dcache.overall_mshr_misses::.cpu.data       868917                       # number of overall MSHR misses
system.cpu.dcache.overall_mshr_misses::total       868917                       # number of overall MSHR misses
system.cpu.dcache.demand_mshr_miss_latency::.cpu.data  24722326494                       # number of demand (read+write) MSHR miss cycles
system.cpu.dcache.demand_mshr_miss_latency::total  24722326494                       # number of demand (read+write) MSHR miss cycles
system.cpu.dcache.overall_mshr_miss_latency::.cpu.data  25405457993                       # number of overall MSHR miss cycles
system.cpu.dcache.overall_mshr_miss_latency::total  25405457993                       # number of overall MSHR miss cycles
system.cpu.dcache.demand_mshr_miss_rate::.cpu.data     0.016535                       # mshr miss rate for demand accesses
system.cpu.dcache.demand_mshr_miss_rate::total     0.016535                       # mshr miss rate for demand accesses
system.cpu.dcache.overall_mshr_miss_rate::.cpu.data     0.016685                       # mshr miss rate for overall accesses
system.cpu.dcache.overall_mshr_miss_rate::total     0.016685                       # mshr miss rate for overall accesses
system.cpu.dcache.demand_avg_mshr_miss_latency::.cpu.data 28714.370578                       # average overall mshr miss latency
system.cpu.dcache.demand_avg_mshr_miss_latency::total 28714.370578                       # average overall mshr miss latency
system.cpu.dcache.overall_avg_mshr_miss_latency::.cpu.data 29238.072213                       # average overall mshr miss latency
system.cpu.dcache.overall_avg_mshr_miss_latency::total 29238.072213                       # average overall mshr miss latency
system.cpu.dcache.replacements                 867892                       # number of replacements
system.cpu.dcache.ReadReq_hits::.cpu.data     40577541                       # number of ReadReq hits
system.cpu.dcache.ReadReq_hits::total        40577541                       # number of ReadReq hits
system.cpu.dcache.ReadReq_misses::.cpu.data       541569                       # number of ReadReq misses
system.cpu.dcache.ReadReq_misses::total        541569                       # number of ReadReq misses
system.cpu.dcache.ReadReq_miss_latency::.cpu.data  11032407997                       # number of ReadReq miss cycles
system.cpu.dcache.ReadReq_miss_latency::total  11032407997                       # number of ReadReq miss cycles
system.cpu.dcache.ReadReq_accesses::.cpu.data     41119110                       # number of ReadReq accesses(hits+misses)
system.cpu.dcache.ReadReq_accesses::total     41119110                       # number of ReadReq accesses(hits+misses)
system.cpu.dcache.ReadReq_miss_rate::.cpu.data     0.013171                       # miss rate for ReadReq accesses
system.cpu.dcache.ReadReq_miss_rate::total     0.013171                       # miss rate for ReadReq accesses
system.cpu.dcache.ReadReq_avg_miss_latency::.cpu.data 20371.195539                       # average ReadReq miss latency
system.cpu.dcache.ReadReq_avg_miss_latency::total 20371.195539                       # average ReadReq miss latency
system.cpu.dcache.ReadReq_mshr_hits::.cpu.data         2172                       # number of ReadReq MSHR hits
system.cpu.dcache.ReadReq_mshr_hits::total         2172                       # number of ReadReq MSHR hits
system.cpu.dcache.ReadReq_mshr_misses::.cpu.data       539397                       # number of ReadReq MSHR misses
system.cpu.dcache.ReadReq_mshr_misses::total       539397                       # number of ReadReq MSHR misses
system.cpu.dcache.ReadReq_mshr_miss_latency::.cpu.data  10427999997                       # number of ReadReq MSHR miss cycles
system.cpu.dcache.ReadReq_mshr_miss_latency::total  10427999997                       # number of ReadReq MSHR miss cycles
system.cpu.dcache.ReadReq_mshr_miss_rate::.cpu.data     0.013118                       # mshr miss rate for ReadReq accesses
system.cpu.dcache.ReadReq_mshr_miss_rate::total     0.013118                       # mshr miss rate for ReadReq accesses
system.cpu.dcache.ReadReq_avg_mshr_miss_latency::.cpu.data 19332.699286                       # average ReadReq mshr miss latency
system.cpu.dcache.ReadReq_avg_mshr_miss_latency::total 19332.699286                       # average ReadReq mshr miss latency
system.cpu.dcache.WriteReq_hits::.cpu.data     10568700                       # number of WriteReq hits
system.cpu.dcache.WriteReq_hits::total       10568700                       # number of WriteReq hits
system.cpu.dcache.WriteReq_misses::.cpu.data       381401                       # number of WriteReq misses
system.cpu.dcache.WriteReq_misses::total       381401                       # number of WriteReq misses
system.cpu.dcache.WriteReq_miss_latency::.cpu.data  16171068496                       # number of WriteReq miss cycles
system.cpu.dcache.WriteReq_miss_latency::total  16171068496                       # number of WriteReq miss cycles
system.cpu.dcache.WriteReq_accesses::.cpu.data     10950101                       # number of WriteReq accesses(hits+misses)
system.cpu.dcache.WriteReq_accesses::total     10950101                       # number of WriteReq accesses(hits+misses)
system.cpu.dcache.WriteReq_miss_rate::.cpu.data     0.034831                       # miss rate for WriteReq accesses
system.cpu.dcache.WriteReq_miss_rate::total     0.034831                       # miss rate for WriteReq accesses
system.cpu.dcache.WriteReq_avg_miss_latency::.cpu.data 42399.124533                       # average WriteReq miss latency
system.cpu.dcache.WriteReq_avg_miss_latency::total 42399.124533                       # average WriteReq miss latency
system.cpu.dcache.WriteReq_mshr_hits::.cpu.data        59824                       # number of WriteReq MSHR hits
system.cpu.dcache.WriteReq_mshr_hits::total        59824                       # number of WriteReq MSHR hits
system.cpu.dcache.WriteReq_mshr_misses::.cpu.data       321577                       # number of WriteReq MSHR misses
system.cpu.dcache.WriteReq_mshr_misses::total       321577                       # number of WriteReq MSHR misses
system.cpu.dcache.WriteReq_mshr_miss_latency::.cpu.data  14294326497                       # number of WriteReq MSHR miss cycles
system.cpu.dcache.WriteReq_mshr_miss_latency::total  14294326497                       # number of WriteReq MSHR miss cycles
system.cpu.dcache.WriteReq_mshr_miss_rate::.cpu.data     0.029367                       # mshr miss rate for WriteReq accesses
system.cpu.dcache.WriteReq_mshr_miss_rate::total     0.029367                       # mshr miss rate for WriteReq accesses
system.cpu.dcache.WriteReq_avg_mshr_miss_latency::.cpu.data 44450.711640                       # average WriteReq mshr miss latency
system.cpu.dcache.WriteReq_avg_mshr_miss_latency::total 44450.711640                       # average WriteReq mshr miss latency
system.cpu.dcache.SoftPFReq_hits::.cpu.data          470                       # number of SoftPFReq hits
system.cpu.dcache.SoftPFReq_hits::total           470                       # number of SoftPFReq hits
system.cpu.dcache.SoftPFReq_misses::.cpu.data         7948                       # number of SoftPFReq misses
system.cpu.dcache.SoftPFReq_misses::total         7948                       # number of SoftPFReq misses
system.cpu.dcache.SoftPFReq_accesses::.cpu.data         8418                       # number of SoftPFReq accesses(hits+misses)
system.cpu.dcache.SoftPFReq_accesses::total         8418                       # number of SoftPFReq accesses(hits+misses)
system.cpu.dcache.SoftPFReq_miss_rate::.cpu.data     0.944167                       # miss rate for SoftPFReq accesses
system.cpu.dcache.SoftPFReq_miss_rate::total     0.944167                       # miss rate for SoftPFReq accesses
system.cpu.dcache.SoftPFReq_mshr_misses::.cpu.data         7943                       # number of SoftPFReq MSHR misses
system.cpu.dcache.SoftPFReq_mshr_misses::total         7943                       # number of SoftPFReq MSHR misses
system.cpu.dcache.SoftPFReq_mshr_miss_latency::.cpu.data    683131499                       # number of SoftPFReq MSHR miss cycles
system.cpu.dcache.SoftPFReq_mshr_miss_latency::total    683131499                       # number of SoftPFReq MSHR miss cycles
system.cpu.dcache.SoftPFReq_mshr_miss_rate::.cpu.data     0.943573                       # mshr miss rate for SoftPFReq accesses
system.cpu.dcache.SoftPFReq_mshr_miss_rate::total     0.943573                       # mshr miss rate for SoftPFReq accesses
system.cpu.dcache.SoftPFReq_avg_mshr_miss_latency::.cpu.data 86004.217424                       # average SoftPFReq mshr miss latency
system.cpu.dcache.SoftPFReq_avg_mshr_miss_latency::total 86004.217424                       # average SoftPFReq mshr miss latency
system.cpu.dcache.LoadLockedReq_hits::.cpu.data           38                       # number of LoadLockedReq hits
system.cpu.dcache.LoadLockedReq_hits::total           38                       # number of LoadLockedReq hits
system.cpu.dcache.LoadLockedReq_accesses::.cpu.data           38                       # number of LoadLockedReq accesses(hits+misses)
system.cpu.dcache.LoadLockedReq_accesses::total           38                       # number of LoadLockedReq accesses(hits+misses)
system.cpu.dcache.StoreCondReq_hits::.cpu.data           38                       # number of StoreCondReq hits
system.cpu.dcache.StoreCondReq_hits::total           38                       # number of StoreCondReq hits
system.cpu.dcache.StoreCondReq_accesses::.cpu.data           38                       # number of StoreCondReq accesses(hits+misses)
system.cpu.dcache.StoreCondReq_accesses::total           38                       # number of StoreCondReq accesses(hits+misses)
system.cpu.dcache.tags.pwrStateResidencyTicks::UNDEFINED  85603575500                       # Cumulative time (in ticks) in various power states
system.cpu.dcache.tags.tagsinuse          1008.233710                       # Cycle average of tags in use
system.cpu.dcache.tags.total_refs            52015703                       # Total number of references to valid blocks.
system.cpu.dcache.tags.sampled_refs            868916                       # Sample count of references to valid blocks.
system.cpu.dcache.tags.avg_refs             59.862752                       # Average number of references to valid blocks.
system.cpu.dcache.tags.warmup_cycle            176500                       # Cycle when the warmup percentage was hit.
system.cpu.dcache.tags.occ_blocks::.cpu.data  1008.233710                       # Average occupied blocks per requestor
system.cpu.dcache.tags.occ_percent::.cpu.data     0.984603                       # Average percentage of cache occupancy
system.cpu.dcache.tags.occ_percent::total     0.984603                       # Average percentage of cache occupancy
system.cpu.dcache.tags.occ_task_id_blocks::1024         1024                       # Occupied blocks per task id
system.cpu.dcache.tags.age_task_id_blocks_1024::0          211                       # Occupied blocks per task id
system.cpu.dcache.tags.age_task_id_blocks_1024::1          382                       # Occupied blocks per task id
system.cpu.dcache.tags.age_task_id_blocks_1024::2          431                       # Occupied blocks per task id
system.cpu.dcache.tags.occ_task_id_percent::1024            1                       # Percentage of cache occupancy per task id
system.cpu.dcache.tags.tag_accesses          52946621                       # Number of tag accesses
system.cpu.dcache.tags.data_accesses         52946621                       # Number of data accesses
system.cpu.itb.walker.pwrStateResidencyTicks::UNDEFINED  85603575500                       # Cumulative time (in ticks) in various power states
system.cpu.itb.stage2_mmu.stage2_tlb.walker.pwrStateResidencyTicks::UNDEFINED  85603575500                       # Cumulative time (in ticks) in various power states

---------- End Simulation Statistics   ----------
