
---------- Begin Simulation Statistics ----------
final_tick                                   25502000                       # Number of ticks from beginning of simulation (restored from checkpoints and never reset)
host_inst_rate                                  23611                       # Simulator instruction rate (inst/s)
host_mem_usage                                 677976                       # Number of bytes of host memory used
host_op_rate                                    27365                       # Simulator op (including micro ops) rate (op/s)
host_seconds                                     0.21                       # Real time elapsed on the host
host_tick_rate                              119662985                       # Simulator tick rate (ticks/s)
sim_freq                                 1000000000000                       # Frequency of simulated ticks
sim_insts                                        5027                       # Number of instructions simulated
sim_ops                                          5831                       # Number of ops (including micro ops) simulated
sim_seconds                                  0.000026                       # Number of seconds simulated
sim_ticks                                    25502000                       # Number of ticks simulated
system.cpu.branchPred.BTBCorrect                    0                       # Number of correct BTB predictions (this stat may not work properly.
system.cpu.branchPred.BTBHitPct             21.090707                       # BTB Hit Percentage
system.cpu.branchPred.BTBHits                     379                       # Number of BTB hits
system.cpu.branchPred.BTBLookups                 1797                       # Number of BTB lookups
system.cpu.branchPred.RASInCorrect                 16                       # Number of incorrect RAS predictions.
system.cpu.branchPred.condIncorrect               373                       # Number of conditional branches incorrect
system.cpu.branchPred.condPredicted              1293                       # Number of conditional branches predicted
system.cpu.branchPred.indirectHits                  9                       # Number of indirect target hits.
system.cpu.branchPred.indirectLookups             138                       # Number of indirect predictor lookups.
system.cpu.branchPred.indirectMisses              129                       # Number of indirect misses.
system.cpu.branchPred.lookups                    2129                       # Number of BP lookups
system.cpu.branchPred.usedRAS                     231                       # Number of times the RAS was used to get a target.
system.cpu.branchPredindirectMispredicted           62                       # Number of mispredicted indirect branches.
system.cpu.committedInsts                        5027                       # Number of instructions committed
system.cpu.committedOps                          5831                       # Number of ops (including micro ops) committed
system.cpu.cpi                              10.146012                       # CPI: cycles per instruction
system.cpu.discardedOps                          1245                       # Number of ops (including micro ops) which were discarded before commit
system.cpu.dtb.accesses                             0                       # DTB accesses
system.cpu.dtb.align_faults                         0                       # Number of TLB faults due to alignment restrictions
system.cpu.dtb.domain_faults                        0                       # Number of TLB faults due to domain restrictions
system.cpu.dtb.flush_entries                        0                       # Number of entries that have been flushed from TLB
system.cpu.dtb.flush_tlb                            0                       # Number of times complete TLB was flushed
system.cpu.dtb.flush_tlb_asid                       0                       # Number of times TLB was flushed by ASID
system.cpu.dtb.flush_tlb_mva                        0                       # Number of times TLB was flushed by MVA
system.cpu.dtb.flush_tlb_mva_asid                   0                       # Number of times TLB was flushed by MVA & ASID
system.cpu.dtb.hits                                 0                       # DTB hits
system.cpu.dtb.inst_accesses                        0                       # ITB inst accesses
system.cpu.dtb.inst_hits                            0                       # ITB inst hits
system.cpu.dtb.inst_misses                          0                       # ITB inst misses
system.cpu.dtb.misses                               0                       # DTB misses
system.cpu.dtb.perms_faults                         0                       # Number of TLB faults due to permissions restrictions
system.cpu.dtb.prefetch_faults                      0                       # Number of TLB faults due to prefetch
system.cpu.dtb.read_accesses                        0                       # DTB read accesses
system.cpu.dtb.read_hits                            0                       # DTB read hits
system.cpu.dtb.read_misses                          0                       # DTB read misses
system.cpu.dtb.stage2_mmu.stage2_tlb.accesses            0                       # DTB accesses
system.cpu.dtb.stage2_mmu.stage2_tlb.align_faults            0                       # Number of TLB faults due to alignment restrictions
system.cpu.dtb.stage2_mmu.stage2_tlb.domain_faults            0                       # Number of TLB faults due to domain restrictions
system.cpu.dtb.stage2_mmu.stage2_tlb.flush_entries            0                       # Number of entries that have been flushed from TLB
system.cpu.dtb.stage2_mmu.stage2_tlb.flush_tlb            0                       # Number of times complete TLB was flushed
system.cpu.dtb.stage2_mmu.stage2_tlb.flush_tlb_asid            0                       # Number of times TLB was flushed by ASID
system.cpu.dtb.stage2_mmu.stage2_tlb.flush_tlb_mva            0                       # Number of times TLB was flushed by MVA
system.cpu.dtb.stage2_mmu.stage2_tlb.flush_tlb_mva_asid            0                       # Number of times TLB was flushed by MVA & ASID
system.cpu.dtb.stage2_mmu.stage2_tlb.hits            0                       # DTB hits
system.cpu.dtb.stage2_mmu.stage2_tlb.inst_accesses            0                       # ITB inst accesses
system.cpu.dtb.stage2_mmu.stage2_tlb.inst_hits            0                       # ITB inst hits
system.cpu.dtb.stage2_mmu.stage2_tlb.inst_misses            0                       # ITB inst misses
system.cpu.dtb.stage2_mmu.stage2_tlb.misses            0                       # DTB misses
system.cpu.dtb.stage2_mmu.stage2_tlb.perms_faults            0                       # Number of TLB faults due to permissions restrictions
system.cpu.dtb.stage2_mmu.stage2_tlb.prefetch_faults            0                       # Number of TLB faults due to prefetch
system.cpu.dtb.stage2_mmu.stage2_tlb.read_accesses            0                       # DTB read accesses
system.cpu.dtb.stage2_mmu.stage2_tlb.read_hits            0                       # DTB read hits
system.cpu.dtb.stage2_mmu.stage2_tlb.read_misses            0                       # DTB read misses
system.cpu.dtb.stage2_mmu.stage2_tlb.walker.walkRequestOrigin_Requested::Data            0                       # Table walker requests started/completed, data/inst
system.cpu.dtb.stage2_mmu.stage2_tlb.walker.walkRequestOrigin_Requested::Inst            0                       # Table walker requests started/completed, data/inst
system.cpu.dtb.stage2_mmu.stage2_tlb.walker.walkRequestOrigin_Requested::total            0                       # Table walker requests started/completed, data/inst
system.cpu.dtb.stage2_mmu.stage2_tlb.walker.walkRequestOrigin_Completed::Data            0                       # Table walker requests started/completed, data/inst
system.cpu.dtb.stage2_mmu.stage2_tlb.walker.walkRequestOrigin_Completed::Inst            0                       # Table walker requests started/completed, data/inst
system.cpu.dtb.stage2_mmu.stage2_tlb.walker.walkRequestOrigin_Completed::total            0                       # Table walker requests started/completed, data/inst
system.cpu.dtb.stage2_mmu.stage2_tlb.walker.walkRequestOrigin::total            0                       # Table walker requests started/completed, data/inst
system.cpu.dtb.stage2_mmu.stage2_tlb.walker.walks            0                       # Table walker walks requested
system.cpu.dtb.stage2_mmu.stage2_tlb.write_accesses            0                       # DTB write accesses
system.cpu.dtb.stage2_mmu.stage2_tlb.write_hits            0                       # DTB write hits
system.cpu.dtb.stage2_mmu.stage2_tlb.write_misses            0                       # DTB write misses
system.cpu.dtb.walker.walkRequestOrigin_Requested::Data            0                       # Table walker requests started/completed, data/inst
system.cpu.dtb.walker.walkRequestOrigin_Requested::Inst            0                       # Table walker requests started/completed, data/inst
system.cpu.dtb.walker.walkRequestOrigin_Requested::total            0                       # Table walker requests started/completed, data/inst
system.cpu.dtb.walker.walkRequestOrigin_Completed::Data            0                       # Table walker requests started/completed, data/inst
system.cpu.dtb.walker.walkRequestOrigin_Completed::Inst            0                       # Table walker requests started/completed, data/inst
system.cpu.dtb.walker.walkRequestOrigin_Completed::total            0                       # Table walker requests started/completed, data/inst
system.cpu.dtb.walker.walkRequestOrigin::total            0                       # Table walker requests started/completed, data/inst
system.cpu.dtb.walker.walks                         0                       # Table walker walks requested
system.cpu.dtb.write_accesses                       0                       # DTB write accesses
system.cpu.dtb.write_hits                           0                       # DTB write hits
system.cpu.dtb.write_misses                         0                       # DTB write misses
system.cpu.fetch2.amo_instructions                  0                       # Number of memory atomic instructions successfully decoded
system.cpu.fetch2.fp_instructions                   0                       # Number of floating point instructions successfully decoded
system.cpu.fetch2.int_instructions               5221                       # Number of integer instructions successfully decoded
system.cpu.fetch2.load_instructions              1743                       # Number of memory load instructions successfully decoded
system.cpu.fetch2.store_instructions              805                       # Number of memory store instructions successfully decoded
system.cpu.fetch2.vec_instructions                  0                       # Number of SIMD instructions successfully decoded
system.cpu.idleCycles                           39550                       # Total number of cycles that the object has spent stopped
system.cpu.ipc                               0.098561                       # IPC: instructions per cycle
system.cpu.itb.accesses                             0                       # DTB accesses
system.cpu.itb.align_faults                         0                       # Number of TLB faults due to alignment restrictions
system.cpu.itb.domain_faults                        0                       # Number of TLB faults due to domain restrictions
system.cpu.itb.flush_entries                        0                       # Number of entries that have been flushed from TLB
system.cpu.itb.flush_tlb                            0                       # Number of times complete TLB was flushed
system.cpu.itb.flush_tlb_asid                       0                       # Number of times TLB was flushed by ASID
system.cpu.itb.flush_tlb_mva                        0                       # Number of times TLB was flushed by MVA
system.cpu.itb.flush_tlb_mva_asid                   0                       # Number of times TLB was flushed by MVA & ASID
system.cpu.itb.hits                                 0                       # DTB hits
system.cpu.itb.inst_accesses                        0                       # ITB inst accesses
system.cpu.itb.inst_hits                            0                       # ITB inst hits
system.cpu.itb.inst_misses                          0                       # ITB inst misses
system.cpu.itb.misses                               0                       # DTB misses
system.cpu.itb.perms_faults                         0                       # Number of TLB faults due to permissions restrictions
system.cpu.itb.prefetch_faults                      0                       # Number of TLB faults due to prefetch
system.cpu.itb.read_accesses                        0                       # DTB read accesses
system.cpu.itb.read_hits                            0                       # DTB read hits
system.cpu.itb.read_misses                          0                       # DTB read misses
system.cpu.itb.stage2_mmu.stage2_tlb.accesses            0                       # DTB accesses
system.cpu.itb.stage2_mmu.stage2_tlb.align_faults            0                       # Number of TLB faults due to alignment restrictions
system.cpu.itb.stage2_mmu.stage2_tlb.domain_faults            0                       # Number of TLB faults due to domain restrictions
system.cpu.itb.stage2_mmu.stage2_tlb.flush_entries            0                       # Number of entries that have been flushed from TLB
system.cpu.itb.stage2_mmu.stage2_tlb.flush_tlb            0                       # Number of times complete TLB was flushed
system.cpu.itb.stage2_mmu.stage2_tlb.flush_tlb_asid            0                       # Number of times TLB was flushed by ASID
system.cpu.itb.stage2_mmu.stage2_tlb.flush_tlb_mva            0                       # Number of times TLB was flushed by MVA
system.cpu.itb.stage2_mmu.stage2_tlb.flush_tlb_mva_asid            0                       # Number of times TLB was flushed by MVA & ASID
system.cpu.itb.stage2_mmu.stage2_tlb.hits            0                       # DTB hits
system.cpu.itb.stage2_mmu.stage2_tlb.inst_accesses            0                       # ITB inst accesses
system.cpu.itb.stage2_mmu.stage2_tlb.inst_hits            0                       # ITB inst hits
system.cpu.itb.stage2_mmu.stage2_tlb.inst_misses            0                       # ITB inst misses
system.cpu.itb.stage2_mmu.stage2_tlb.misses            0                       # DTB misses
system.cpu.itb.stage2_mmu.stage2_tlb.perms_faults            0                       # Number of TLB faults due to permissions restrictions
system.cpu.itb.stage2_mmu.stage2_tlb.prefetch_faults            0                       # Number of TLB faults due to prefetch
system.cpu.itb.stage2_mmu.stage2_tlb.read_accesses            0                       # DTB read accesses
system.cpu.itb.stage2_mmu.stage2_tlb.read_hits            0                       # DTB read hits
system.cpu.itb.stage2_mmu.stage2_tlb.read_misses            0                       # DTB read misses
system.cpu.itb.stage2_mmu.stage2_tlb.walker.walkRequestOrigin_Requested::Data            0                       # Table walker requests started/completed, data/inst
system.cpu.itb.stage2_mmu.stage2_tlb.walker.walkRequestOrigin_Requested::Inst            0                       # Table walker requests started/completed, data/inst
system.cpu.itb.stage2_mmu.stage2_tlb.walker.walkRequestOrigin_Requested::total            0                       # Table walker requests started/completed, data/inst
system.cpu.itb.stage2_mmu.stage2_tlb.walker.walkRequestOrigin_Completed::Data            0                       # Table walker requests started/completed, data/inst
system.cpu.itb.stage2_mmu.stage2_tlb.walker.walkRequestOrigin_Completed::Inst            0                       # Table walker requests started/completed, data/inst
system.cpu.itb.stage2_mmu.stage2_tlb.walker.walkRequestOrigin_Completed::total            0                       # Table walker requests started/completed, data/inst
system.cpu.itb.stage2_mmu.stage2_tlb.walker.walkRequestOrigin::total            0                       # Table walker requests started/completed, data/inst
system.cpu.itb.stage2_mmu.stage2_tlb.walker.walks            0                       # Table walker walks requested
system.cpu.itb.stage2_mmu.stage2_tlb.write_accesses            0                       # DTB write accesses
system.cpu.itb.stage2_mmu.stage2_tlb.write_hits            0                       # DTB write hits
system.cpu.itb.stage2_mmu.stage2_tlb.write_misses            0                       # DTB write misses
system.cpu.itb.walker.walkRequestOrigin_Requested::Data            0                       # Table walker requests started/completed, data/inst
system.cpu.itb.walker.walkRequestOrigin_Requested::Inst            0                       # Table walker requests started/completed, data/inst
system.cpu.itb.walker.walkRequestOrigin_Requested::total            0                       # Table walker requests started/completed, data/inst
system.cpu.itb.walker.walkRequestOrigin_Completed::Data            0                       # Table walker requests started/completed, data/inst
system.cpu.itb.walker.walkRequestOrigin_Completed::Inst            0                       # Table walker requests started/completed, data/inst
system.cpu.itb.walker.walkRequestOrigin_Completed::total            0                       # Table walker requests started/completed, data/inst
system.cpu.itb.walker.walkRequestOrigin::total            0                       # Table walker requests started/completed, data/inst
system.cpu.itb.walker.walks                         0                       # Table walker walks requested
system.cpu.itb.write_accesses                       0                       # DTB write accesses
system.cpu.itb.write_hits                           0                       # DTB write hits
system.cpu.itb.write_misses                         0                       # DTB write misses
system.cpu.numCycles                            51004                       # number of cpu cycles simulated
system.cpu.numFetchSuspends                         0                       # Number of times Execute suspended instruction fetching
system.cpu.numWorkItemsCompleted                    0                       # number of work items this cpu completed
system.cpu.numWorkItemsStarted                      0                       # number of work items this cpu started
system.cpu.op_class_0::No_OpClass                   0      0.00%      0.00% # Class of committed instruction
system.cpu.op_class_0::IntAlu                    3789     64.98%     64.98% # Class of committed instruction
system.cpu.op_class_0::IntMult                      4      0.07%     65.05% # Class of committed instruction
system.cpu.op_class_0::IntDiv                       0      0.00%     65.05% # Class of committed instruction
system.cpu.op_class_0::FloatAdd                     0      0.00%     65.05% # Class of committed instruction
system.cpu.op_class_0::FloatCmp                     0      0.00%     65.05% # Class of committed instruction
system.cpu.op_class_0::FloatCvt                     0      0.00%     65.05% # Class of committed instruction
system.cpu.op_class_0::FloatMult                    0      0.00%     65.05% # Class of committed instruction
system.cpu.op_class_0::FloatMultAcc                 0      0.00%     65.05% # Class of committed instruction
system.cpu.op_class_0::FloatDiv                     0      0.00%     65.05% # Class of committed instruction
system.cpu.op_class_0::FloatMisc                    0      0.00%     65.05% # Class of committed instruction
system.cpu.op_class_0::FloatSqrt                    0      0.00%     65.05% # Class of committed instruction
system.cpu.op_class_0::SimdAdd                      0      0.00%     65.05% # Class of committed instruction
system.cpu.op_class_0::SimdAddAcc                   0      0.00%     65.05% # Class of committed instruction
system.cpu.op_class_0::SimdAlu                      0      0.00%     65.05% # Class of committed instruction
system.cpu.op_class_0::SimdCmp                      0      0.00%     65.05% # Class of committed instruction
system.cpu.op_class_0::SimdCvt                      0      0.00%     65.05% # Class of committed instruction
system.cpu.op_class_0::SimdMisc                     0      0.00%     65.05% # Class of committed instruction
system.cpu.op_class_0::SimdMult                     0      0.00%     65.05% # Class of committed instruction
system.cpu.op_class_0::SimdMultAcc                  0      0.00%     65.05% # Class of committed instruction
system.cpu.op_class_0::SimdShift                    0      0.00%     65.05% # Class of committed instruction
system.cpu.op_class_0::SimdShiftAcc                 0      0.00%     65.05% # Class of committed instruction
system.cpu.op_class_0::SimdDiv                      0      0.00%     65.05% # Class of committed instruction
system.cpu.op_class_0::SimdSqrt                     0      0.00%     65.05% # Class of committed instruction
system.cpu.op_class_0::SimdFloatAdd                 0      0.00%     65.05% # Class of committed instruction
system.cpu.op_class_0::SimdFloatAlu                 0      0.00%     65.05% # Class of committed instruction
system.cpu.op_class_0::SimdFloatCmp                 0      0.00%     65.05% # Class of committed instruction
system.cpu.op_class_0::SimdFloatCvt                 0      0.00%     65.05% # Class of committed instruction
system.cpu.op_class_0::SimdFloatDiv                 0      0.00%     65.05% # Class of committed instruction
system.cpu.op_class_0::SimdFloatMisc                3      0.05%     65.10% # Class of committed instruction
system.cpu.op_class_0::SimdFloatMult                0      0.00%     65.10% # Class of committed instruction
system.cpu.op_class_0::SimdFloatMultAcc             0      0.00%     65.10% # Class of committed instruction
system.cpu.op_class_0::SimdFloatSqrt                0      0.00%     65.10% # Class of committed instruction
system.cpu.op_class_0::SimdReduceAdd                0      0.00%     65.10% # Class of committed instruction
system.cpu.op_class_0::SimdReduceAlu                0      0.00%     65.10% # Class of committed instruction
system.cpu.op_class_0::SimdReduceCmp                0      0.00%     65.10% # Class of committed instruction
system.cpu.op_class_0::SimdFloatReduceAdd            0      0.00%     65.10% # Class of committed instruction
system.cpu.op_class_0::SimdFloatReduceCmp            0      0.00%     65.10% # Class of committed instruction
system.cpu.op_class_0::SimdAes                      0      0.00%     65.10% # Class of committed instruction
system.cpu.op_class_0::SimdAesMix                   0      0.00%     65.10% # Class of committed instruction
system.cpu.op_class_0::SimdSha1Hash                 0      0.00%     65.10% # Class of committed instruction
system.cpu.op_class_0::SimdSha1Hash2                0      0.00%     65.10% # Class of committed instruction
system.cpu.op_class_0::SimdSha256Hash               0      0.00%     65.10% # Class of committed instruction
system.cpu.op_class_0::SimdSha256Hash2              0      0.00%     65.10% # Class of committed instruction
system.cpu.op_class_0::SimdShaSigma2                0      0.00%     65.10% # Class of committed instruction
system.cpu.op_class_0::SimdShaSigma3                0      0.00%     65.10% # Class of committed instruction
system.cpu.op_class_0::SimdPredAlu                  0      0.00%     65.10% # Class of committed instruction
system.cpu.op_class_0::MemRead                   1085     18.61%     83.71% # Class of committed instruction
system.cpu.op_class_0::MemWrite                   950     16.29%    100.00% # Class of committed instruction
system.cpu.op_class_0::FloatMemRead                 0      0.00%    100.00% # Class of committed instruction
system.cpu.op_class_0::FloatMemWrite                0      0.00%    100.00% # Class of committed instruction
system.cpu.op_class_0::IprAccess                    0      0.00%    100.00% # Class of committed instruction
system.cpu.op_class_0::InstPrefetch                 0      0.00%    100.00% # Class of committed instruction
system.cpu.op_class_0::total                     5831                       # Class of committed instruction
system.cpu.tickCycles                           11454                       # Number of cycles that the object actually ticked
system.cpu.workload.numSyscalls                    13                       # Number of system calls
system.membus.snoop_filter.hit_multi_requests           12                       # Number of requests hitting in the snoop filter with multiple (>1) holders of the requested data.
system.membus.snoop_filter.hit_multi_snoops            0                       # Number of snoops hitting in the snoop filter with multiple (>1) holders of the requested data.
system.membus.snoop_filter.hit_single_requests           94                       # Number of requests hitting in the snoop filter with a single holder of the requested data.
system.membus.snoop_filter.hit_single_snoops            0                       # Number of snoops hitting in the snoop filter with a single holder of the requested data.
system.membus.snoop_filter.tot_requests           532                       # Total number of requests made to the snoop filter.
system.membus.snoop_filter.tot_snoops               0                       # Total number of snoops made to the snoop filter.
system.membus.pwrStateResidencyTicks::UNDEFINED     25502000                       # Cumulative time (in ticks) in various power states
system.membus.trans_dist::ReadResp                434                       # Transaction distribution
system.membus.trans_dist::WritebackClean           55                       # Transaction distribution
system.membus.trans_dist::ReadExReq                43                       # Transaction distribution
system.membus.trans_dist::ReadExResp               43                       # Transaction distribution
system.membus.trans_dist::ReadCleanReq            330                       # Transaction distribution
system.membus.trans_dist::ReadSharedReq           104                       # Transaction distribution
system.membus.pkt_count_system.cpu.icache.mem_side::system.mem_ctrls.port          715                       # Packet count per connected master and slave (bytes)
system.membus.pkt_count_system.cpu.dcache.mem_side::system.mem_ctrls.port          294                       # Packet count per connected master and slave (bytes)
system.membus.pkt_count::total                   1009                       # Packet count per connected master and slave (bytes)
system.membus.pkt_size_system.cpu.icache.mem_side::system.mem_ctrls.port        24640                       # Cumulative packet size per connected master and slave (bytes)
system.membus.pkt_size_system.cpu.dcache.mem_side::system.mem_ctrls.port         9408                       # Cumulative packet size per connected master and slave (bytes)
system.membus.pkt_size::total                   34048                       # Cumulative packet size per connected master and slave (bytes)
system.membus.snoops                                0                       # Total snoops (count)
system.membus.snoopTraffic                          0                       # Total snoop traffic (bytes)
system.membus.snoop_fanout::samples               477                       # Request fanout histogram
system.membus.snoop_fanout::mean             0.106918                       # Request fanout histogram
system.membus.snoop_fanout::stdev            0.309334                       # Request fanout histogram
system.membus.snoop_fanout::underflows              0      0.00%      0.00% # Request fanout histogram
system.membus.snoop_fanout::0                     426     89.31%     89.31% # Request fanout histogram
system.membus.snoop_fanout::1                      51     10.69%    100.00% # Request fanout histogram
system.membus.snoop_fanout::2                       0      0.00%    100.00% # Request fanout histogram
system.membus.snoop_fanout::overflows               0      0.00%    100.00% # Request fanout histogram
system.membus.snoop_fanout::min_value               0                       # Request fanout histogram
system.membus.snoop_fanout::max_value               1                       # Request fanout histogram
system.membus.snoop_fanout::total                 477                       # Request fanout histogram
system.membus.reqLayer0.occupancy              833500                       # Layer occupancy (ticks)
system.membus.reqLayer0.utilization               3.3                       # Layer utilization (%)
system.membus.respLayer1.occupancy            1749500                       # Layer occupancy (ticks)
system.membus.respLayer1.utilization              6.9                       # Layer utilization (%)
system.membus.respLayer2.occupancy             793500                       # Layer occupancy (ticks)
system.membus.respLayer2.utilization              3.1                       # Layer utilization (%)
system.voltage_domain.voltage                       1                       # Voltage in Volts
system.clk_domain.clock                          1000                       # Clock period in ticks
system.cpu_voltage_domain.voltage                   1                       # Voltage in Volts
system.mem_ctrls.pwrStateResidencyTicks::UNDEFINED     25502000                       # Cumulative time (in ticks) in various power states
system.mem_ctrls.bytes_read::.cpu.inst          21120                       # Number of bytes read from this memory
system.mem_ctrls.bytes_read::.cpu.data           9408                       # Number of bytes read from this memory
system.mem_ctrls.bytes_read::total              30528                       # Number of bytes read from this memory
system.mem_ctrls.bytes_inst_read::.cpu.inst        21120                       # Number of instructions bytes read from this memory
system.mem_ctrls.bytes_inst_read::total         21120                       # Number of instructions bytes read from this memory
system.mem_ctrls.num_reads::.cpu.inst             330                       # Number of read requests responded to by this memory
system.mem_ctrls.num_reads::.cpu.data             147                       # Number of read requests responded to by this memory
system.mem_ctrls.num_reads::total                 477                       # Number of read requests responded to by this memory
system.mem_ctrls.bw_read::.cpu.inst         828170340                       # Total read bandwidth from this memory (bytes/s)
system.mem_ctrls.bw_read::.cpu.data         368912242                       # Total read bandwidth from this memory (bytes/s)
system.mem_ctrls.bw_read::total            1197082582                       # Total read bandwidth from this memory (bytes/s)
system.mem_ctrls.bw_inst_read::.cpu.inst    828170340                       # Instruction read bandwidth from this memory (bytes/s)
system.mem_ctrls.bw_inst_read::total        828170340                       # Instruction read bandwidth from this memory (bytes/s)
system.mem_ctrls.bw_total::.cpu.inst        828170340                       # Total bandwidth to/from this memory (bytes/s)
system.mem_ctrls.bw_total::.cpu.data        368912242                       # Total bandwidth to/from this memory (bytes/s)
system.mem_ctrls.bw_total::total           1197082582                       # Total bandwidth to/from this memory (bytes/s)
system.mem_ctrls.avgPriority_.writebacks::samples        41.00                       # Average QoS priority value for accepted requests
system.mem_ctrls.avgPriority_.cpu.inst::samples       325.00                       # Average QoS priority value for accepted requests
system.mem_ctrls.avgPriority_.cpu.data::samples       147.00                       # Average QoS priority value for accepted requests
system.mem_ctrls.priorityMinLatency      0.000000018750                       # per QoS priority minimum request to response latency (s)
system.mem_ctrls.priorityMaxLatency      0.000034034750                       # per QoS priority maximum request to response latency (s)
system.mem_ctrls.numReadWriteTurnArounds            1                       # Number of turnarounds from READ to WRITE
system.mem_ctrls.numWriteReadTurnArounds            1                       # Number of turnarounds from WRITE to READ
system.mem_ctrls.numStayReadState                 991                       # Number of times bus staying in READ state
system.mem_ctrls.numStayWriteState                 15                       # Number of times bus staying in WRITE state
system.mem_ctrls.readReqs                         477                       # Number of read requests accepted
system.mem_ctrls.writeReqs                         43                       # Number of write requests accepted
system.mem_ctrls.readBursts                       477                       # Number of DRAM read bursts, including those serviced by the write queue
system.mem_ctrls.writeBursts                       43                       # Number of DRAM write bursts, including those merged in the write queue
system.mem_ctrls.servicedByWrQ                      5                       # Number of DRAM read bursts serviced by the write queue
system.mem_ctrls.mergedWrBursts                     2                       # Number of DRAM write bursts merged with an existing one
system.mem_ctrls.neitherReadNorWriteReqs            0                       # Number of requests that are neither read nor write
system.mem_ctrls.perBankRdBursts::0               109                       # Per bank write bursts
system.mem_ctrls.perBankRdBursts::1                55                       # Per bank write bursts
system.mem_ctrls.perBankRdBursts::2                20                       # Per bank write bursts
system.mem_ctrls.perBankRdBursts::3                43                       # Per bank write bursts
system.mem_ctrls.perBankRdBursts::4                22                       # Per bank write bursts
system.mem_ctrls.perBankRdBursts::5                50                       # Per bank write bursts
system.mem_ctrls.perBankRdBursts::6                47                       # Per bank write bursts
system.mem_ctrls.perBankRdBursts::7                14                       # Per bank write bursts
system.mem_ctrls.perBankRdBursts::8                 8                       # Per bank write bursts
system.mem_ctrls.perBankRdBursts::9                 7                       # Per bank write bursts
system.mem_ctrls.perBankRdBursts::10               29                       # Per bank write bursts
system.mem_ctrls.perBankRdBursts::11               43                       # Per bank write bursts
system.mem_ctrls.perBankRdBursts::12                9                       # Per bank write bursts
system.mem_ctrls.perBankRdBursts::13                8                       # Per bank write bursts
system.mem_ctrls.perBankRdBursts::14                0                       # Per bank write bursts
system.mem_ctrls.perBankRdBursts::15                8                       # Per bank write bursts
system.mem_ctrls.perBankWrBursts::0                 1                       # Per bank write bursts
system.mem_ctrls.perBankWrBursts::1                 0                       # Per bank write bursts
system.mem_ctrls.perBankWrBursts::2                 1                       # Per bank write bursts
system.mem_ctrls.perBankWrBursts::3                 1                       # Per bank write bursts
system.mem_ctrls.perBankWrBursts::4                 2                       # Per bank write bursts
system.mem_ctrls.perBankWrBursts::5                 4                       # Per bank write bursts
system.mem_ctrls.perBankWrBursts::6                 3                       # Per bank write bursts
system.mem_ctrls.perBankWrBursts::7                 4                       # Per bank write bursts
system.mem_ctrls.perBankWrBursts::8                 0                       # Per bank write bursts
system.mem_ctrls.perBankWrBursts::9                 0                       # Per bank write bursts
system.mem_ctrls.perBankWrBursts::10                0                       # Per bank write bursts
system.mem_ctrls.perBankWrBursts::11                0                       # Per bank write bursts
system.mem_ctrls.perBankWrBursts::12                0                       # Per bank write bursts
system.mem_ctrls.perBankWrBursts::13                0                       # Per bank write bursts
system.mem_ctrls.perBankWrBursts::14                0                       # Per bank write bursts
system.mem_ctrls.perBankWrBursts::15                0                       # Per bank write bursts
system.mem_ctrls.avgRdQLen                       1.28                       # Average read queue length when enqueuing
system.mem_ctrls.avgWrQLen                      11.30                       # Average write queue length when enqueuing
system.mem_ctrls.totQLat                      3346750                       # Total ticks spent queuing
system.mem_ctrls.totBusLat                    2360000                       # Total ticks spent in databus transfers
system.mem_ctrls.totMemAccLat                12196750                       # Total ticks spent from burst creation until serviced by the DRAM
system.mem_ctrls.avgQLat                      7090.57                       # Average queueing delay per DRAM burst
system.mem_ctrls.avgBusLat                    5000.00                       # Average bus latency per DRAM burst
system.mem_ctrls.avgMemAccLat                25840.57                       # Average memory access latency per DRAM burst
system.mem_ctrls.numRdRetry                         0                       # Number of times read queue was full causing retry
system.mem_ctrls.numWrRetry                         0                       # Number of times write queue was full causing retry
system.mem_ctrls.readRowHits                      396                       # Number of row buffer hits during reads
system.mem_ctrls.writeRowHits                      12                       # Number of row buffer hits during writes
system.mem_ctrls.readRowHitRate                 83.90                       # Row buffer hit rate for reads
system.mem_ctrls.writeRowHitRate                29.27                       # Row buffer hit rate for writes
system.mem_ctrls.readPktSize::0                     0                       # Read request sizes (log2)
system.mem_ctrls.readPktSize::1                     0                       # Read request sizes (log2)
system.mem_ctrls.readPktSize::2                     0                       # Read request sizes (log2)
system.mem_ctrls.readPktSize::3                     0                       # Read request sizes (log2)
system.mem_ctrls.readPktSize::4                     0                       # Read request sizes (log2)
system.mem_ctrls.readPktSize::5                     0                       # Read request sizes (log2)
system.mem_ctrls.readPktSize::6                   477                       # Read request sizes (log2)
system.mem_ctrls.writePktSize::0                    0                       # Write request sizes (log2)
system.mem_ctrls.writePktSize::1                    0                       # Write request sizes (log2)
system.mem_ctrls.writePktSize::2                    0                       # Write request sizes (log2)
system.mem_ctrls.writePktSize::3                    0                       # Write request sizes (log2)
system.mem_ctrls.writePktSize::4                    0                       # Write request sizes (log2)
system.mem_ctrls.writePktSize::5                    0                       # Write request sizes (log2)
system.mem_ctrls.writePktSize::6                   43                       # Write request sizes (log2)
system.mem_ctrls.rdQLenPdf::0                     369                       # What read queue length does an incoming req see
system.mem_ctrls.rdQLenPdf::1                      95                       # What read queue length does an incoming req see
system.mem_ctrls.rdQLenPdf::2                       8                       # What read queue length does an incoming req see
system.mem_ctrls.rdQLenPdf::3                       0                       # What read queue length does an incoming req see
system.mem_ctrls.rdQLenPdf::4                       0                       # What read queue length does an incoming req see
system.mem_ctrls.rdQLenPdf::5                       0                       # What read queue length does an incoming req see
system.mem_ctrls.rdQLenPdf::6                       0                       # What read queue length does an incoming req see
system.mem_ctrls.rdQLenPdf::7                       0                       # What read queue length does an incoming req see
system.mem_ctrls.rdQLenPdf::8                       0                       # What read queue length does an incoming req see
system.mem_ctrls.rdQLenPdf::9                       0                       # What read queue length does an incoming req see
system.mem_ctrls.rdQLenPdf::10                      0                       # What read queue length does an incoming req see
system.mem_ctrls.rdQLenPdf::11                      0                       # What read queue length does an incoming req see
system.mem_ctrls.rdQLenPdf::12                      0                       # What read queue length does an incoming req see
system.mem_ctrls.rdQLenPdf::13                      0                       # What read queue length does an incoming req see
system.mem_ctrls.rdQLenPdf::14                      0                       # What read queue length does an incoming req see
system.mem_ctrls.rdQLenPdf::15                      0                       # What read queue length does an incoming req see
system.mem_ctrls.rdQLenPdf::16                      0                       # What read queue length does an incoming req see
system.mem_ctrls.rdQLenPdf::17                      0                       # What read queue length does an incoming req see
system.mem_ctrls.rdQLenPdf::18                      0                       # What read queue length does an incoming req see
system.mem_ctrls.rdQLenPdf::19                      0                       # What read queue length does an incoming req see
system.mem_ctrls.rdQLenPdf::20                      0                       # What read queue length does an incoming req see
system.mem_ctrls.rdQLenPdf::21                      0                       # What read queue length does an incoming req see
system.mem_ctrls.rdQLenPdf::22                      0                       # What read queue length does an incoming req see
system.mem_ctrls.rdQLenPdf::23                      0                       # What read queue length does an incoming req see
system.mem_ctrls.rdQLenPdf::24                      0                       # What read queue length does an incoming req see
system.mem_ctrls.rdQLenPdf::25                      0                       # What read queue length does an incoming req see
system.mem_ctrls.rdQLenPdf::26                      0                       # What read queue length does an incoming req see
system.mem_ctrls.rdQLenPdf::27                      0                       # What read queue length does an incoming req see
system.mem_ctrls.rdQLenPdf::28                      0                       # What read queue length does an incoming req see
system.mem_ctrls.rdQLenPdf::29                      0                       # What read queue length does an incoming req see
system.mem_ctrls.rdQLenPdf::30                      0                       # What read queue length does an incoming req see
system.mem_ctrls.rdQLenPdf::31                      0                       # What read queue length does an incoming req see
system.mem_ctrls.wrQLenPdf::0                       1                       # What write queue length does an incoming req see
system.mem_ctrls.wrQLenPdf::1                       1                       # What write queue length does an incoming req see
system.mem_ctrls.wrQLenPdf::2                       1                       # What write queue length does an incoming req see
system.mem_ctrls.wrQLenPdf::3                       1                       # What write queue length does an incoming req see
system.mem_ctrls.wrQLenPdf::4                       1                       # What write queue length does an incoming req see
system.mem_ctrls.wrQLenPdf::5                       1                       # What write queue length does an incoming req see
system.mem_ctrls.wrQLenPdf::6                       1                       # What write queue length does an incoming req see
system.mem_ctrls.wrQLenPdf::7                       1                       # What write queue length does an incoming req see
system.mem_ctrls.wrQLenPdf::8                       1                       # What write queue length does an incoming req see
system.mem_ctrls.wrQLenPdf::9                       1                       # What write queue length does an incoming req see
system.mem_ctrls.wrQLenPdf::10                      1                       # What write queue length does an incoming req see
system.mem_ctrls.wrQLenPdf::11                      1                       # What write queue length does an incoming req see
system.mem_ctrls.wrQLenPdf::12                      1                       # What write queue length does an incoming req see
system.mem_ctrls.wrQLenPdf::13                      1                       # What write queue length does an incoming req see
system.mem_ctrls.wrQLenPdf::14                      1                       # What write queue length does an incoming req see
system.mem_ctrls.wrQLenPdf::15                      1                       # What write queue length does an incoming req see
system.mem_ctrls.wrQLenPdf::16                      1                       # What write queue length does an incoming req see
system.mem_ctrls.wrQLenPdf::17                      2                       # What write queue length does an incoming req see
system.mem_ctrls.wrQLenPdf::18                      2                       # What write queue length does an incoming req see
system.mem_ctrls.wrQLenPdf::19                      2                       # What write queue length does an incoming req see
system.mem_ctrls.wrQLenPdf::20                      2                       # What write queue length does an incoming req see
system.mem_ctrls.wrQLenPdf::21                      2                       # What write queue length does an incoming req see
system.mem_ctrls.wrQLenPdf::22                      2                       # What write queue length does an incoming req see
system.mem_ctrls.wrQLenPdf::23                      2                       # What write queue length does an incoming req see
system.mem_ctrls.wrQLenPdf::24                      2                       # What write queue length does an incoming req see
system.mem_ctrls.wrQLenPdf::25                      1                       # What write queue length does an incoming req see
system.mem_ctrls.wrQLenPdf::26                      1                       # What write queue length does an incoming req see
system.mem_ctrls.wrQLenPdf::27                      1                       # What write queue length does an incoming req see
system.mem_ctrls.wrQLenPdf::28                      1                       # What write queue length does an incoming req see
system.mem_ctrls.wrQLenPdf::29                      1                       # What write queue length does an incoming req see
system.mem_ctrls.wrQLenPdf::30                      1                       # What write queue length does an incoming req see
system.mem_ctrls.wrQLenPdf::31                      1                       # What write queue length does an incoming req see
system.mem_ctrls.wrQLenPdf::32                      1                       # What write queue length does an incoming req see
system.mem_ctrls.wrQLenPdf::33                      0                       # What write queue length does an incoming req see
system.mem_ctrls.wrQLenPdf::34                      0                       # What write queue length does an incoming req see
system.mem_ctrls.wrQLenPdf::35                      0                       # What write queue length does an incoming req see
system.mem_ctrls.wrQLenPdf::36                      0                       # What write queue length does an incoming req see
system.mem_ctrls.wrQLenPdf::37                      0                       # What write queue length does an incoming req see
system.mem_ctrls.wrQLenPdf::38                      0                       # What write queue length does an incoming req see
system.mem_ctrls.wrQLenPdf::39                      0                       # What write queue length does an incoming req see
system.mem_ctrls.wrQLenPdf::40                      0                       # What write queue length does an incoming req see
system.mem_ctrls.wrQLenPdf::41                      0                       # What write queue length does an incoming req see
system.mem_ctrls.wrQLenPdf::42                      0                       # What write queue length does an incoming req see
system.mem_ctrls.wrQLenPdf::43                      0                       # What write queue length does an incoming req see
system.mem_ctrls.wrQLenPdf::44                      0                       # What write queue length does an incoming req see
system.mem_ctrls.wrQLenPdf::45                      0                       # What write queue length does an incoming req see
system.mem_ctrls.wrQLenPdf::46                      0                       # What write queue length does an incoming req see
system.mem_ctrls.wrQLenPdf::47                      0                       # What write queue length does an incoming req see
system.mem_ctrls.wrQLenPdf::48                      0                       # What write queue length does an incoming req see
system.mem_ctrls.wrQLenPdf::49                      0                       # What write queue length does an incoming req see
system.mem_ctrls.wrQLenPdf::50                      0                       # What write queue length does an incoming req see
system.mem_ctrls.wrQLenPdf::51                      0                       # What write queue length does an incoming req see
system.mem_ctrls.wrQLenPdf::52                      0                       # What write queue length does an incoming req see
system.mem_ctrls.wrQLenPdf::53                      0                       # What write queue length does an incoming req see
system.mem_ctrls.wrQLenPdf::54                      0                       # What write queue length does an incoming req see
system.mem_ctrls.wrQLenPdf::55                      0                       # What write queue length does an incoming req see
system.mem_ctrls.wrQLenPdf::56                      0                       # What write queue length does an incoming req see
system.mem_ctrls.wrQLenPdf::57                      0                       # What write queue length does an incoming req see
system.mem_ctrls.wrQLenPdf::58                      0                       # What write queue length does an incoming req see
system.mem_ctrls.wrQLenPdf::59                      0                       # What write queue length does an incoming req see
system.mem_ctrls.wrQLenPdf::60                      0                       # What write queue length does an incoming req see
system.mem_ctrls.wrQLenPdf::61                      0                       # What write queue length does an incoming req see
system.mem_ctrls.wrQLenPdf::62                      0                       # What write queue length does an incoming req see
system.mem_ctrls.wrQLenPdf::63                      0                       # What write queue length does an incoming req see
system.mem_ctrls.bytesPerActivate::samples           74                       # Bytes accessed per row activation
system.mem_ctrls.bytesPerActivate::mean    405.621622                       # Bytes accessed per row activation
system.mem_ctrls.bytesPerActivate::gmean   278.813780                       # Bytes accessed per row activation
system.mem_ctrls.bytesPerActivate::stdev   328.441346                       # Bytes accessed per row activation
system.mem_ctrls.bytesPerActivate::0-127           12     16.22%     16.22% # Bytes accessed per row activation
system.mem_ctrls.bytesPerActivate::128-255           16     21.62%     37.84% # Bytes accessed per row activation
system.mem_ctrls.bytesPerActivate::256-383           14     18.92%     56.76% # Bytes accessed per row activation
system.mem_ctrls.bytesPerActivate::384-511            9     12.16%     68.92% # Bytes accessed per row activation
system.mem_ctrls.bytesPerActivate::512-639            4      5.41%     74.32% # Bytes accessed per row activation
system.mem_ctrls.bytesPerActivate::640-767            4      5.41%     79.73% # Bytes accessed per row activation
system.mem_ctrls.bytesPerActivate::768-895            4      5.41%     85.14% # Bytes accessed per row activation
system.mem_ctrls.bytesPerActivate::1024-1151           11     14.86%    100.00% # Bytes accessed per row activation
system.mem_ctrls.bytesPerActivate::total           74                       # Bytes accessed per row activation
system.mem_ctrls.rdPerTurnAround::samples            1                       # Reads before turning the bus around for writes
system.mem_ctrls.rdPerTurnAround::mean            428                       # Reads before turning the bus around for writes
system.mem_ctrls.rdPerTurnAround::gmean    428.000000                       # Reads before turning the bus around for writes
system.mem_ctrls.rdPerTurnAround::stdev           nan                       # Reads before turning the bus around for writes
system.mem_ctrls.rdPerTurnAround::416-431            1    100.00%    100.00% # Reads before turning the bus around for writes
system.mem_ctrls.rdPerTurnAround::total             1                       # Reads before turning the bus around for writes
system.mem_ctrls.wrPerTurnAround::samples            1                       # Writes before turning the bus around for reads
system.mem_ctrls.wrPerTurnAround::mean             16                       # Writes before turning the bus around for reads
system.mem_ctrls.wrPerTurnAround::gmean     16.000000                       # Writes before turning the bus around for reads
system.mem_ctrls.wrPerTurnAround::stdev           nan                       # Writes before turning the bus around for reads
system.mem_ctrls.wrPerTurnAround::16                1    100.00%    100.00% # Writes before turning the bus around for reads
system.mem_ctrls.wrPerTurnAround::total             1                       # Writes before turning the bus around for reads
system.mem_ctrls.bytesReadDRAM                  30208                       # Total number of bytes read from DRAM
system.mem_ctrls.bytesReadWrQ                     320                       # Total number of bytes read from write queue
system.mem_ctrls.bytesWritten                    1024                       # Total number of bytes written to DRAM
system.mem_ctrls.bytesReadSys                   30528                       # Total read bytes from the system interface side
system.mem_ctrls.bytesWrittenSys                 2752                       # Total written bytes from the system interface side
system.mem_ctrls.avgRdBW                      1184.53                       # Average DRAM read bandwidth in MiByte/s
system.mem_ctrls.avgWrBW                        40.15                       # Average achieved write bandwidth in MiByte/s
system.mem_ctrls.avgRdBWSys                   1197.08                       # Average system read bandwidth in MiByte/s
system.mem_ctrls.avgWrBWSys                    107.91                       # Average system write bandwidth in MiByte/s
system.mem_ctrls.peakBW                      12800.00                       # Theoretical peak bandwidth in MiByte/s
system.mem_ctrls.busUtil                         9.57                       # Data bus utilization in percentage
system.mem_ctrls.busUtilRead                     9.25                       # Data bus utilization in percentage for reads
system.mem_ctrls.busUtilWrite                    0.31                       # Data bus utilization in percentage for writes
system.mem_ctrls.totGap                      25443500                       # Total gap between requests
system.mem_ctrls.avgGap                      48929.81                       # Average gap between requests
system.mem_ctrls.masterReadBytes::.cpu.inst        20800                       # Per-master bytes read from memory
system.mem_ctrls.masterReadBytes::.cpu.data         9408                       # Per-master bytes read from memory
system.mem_ctrls.masterWriteBytes::.writebacks         1024                       # Per-master bytes write to memory
system.mem_ctrls.masterReadRate::.cpu.inst 815622304.133009195328                       # Per-master bytes read from memory rate (Bytes/sec)
system.mem_ctrls.masterReadRate::.cpu.data 368912242.177084147930                       # Per-master bytes read from memory rate (Bytes/sec)
system.mem_ctrls.masterWriteRate::.writebacks 40153713.434240452945                       # Per-master bytes write to memory rate (Bytes/sec)
system.mem_ctrls.masterReadAccesses::.cpu.inst          330                       # Per-master read serviced memory accesses
system.mem_ctrls.masterReadAccesses::.cpu.data          147                       # Per-master read serviced memory accesses
system.mem_ctrls.masterWriteAccesses::.writebacks           43                       # Per-master write serviced memory accesses
system.mem_ctrls.masterReadTotalLat::.cpu.inst      7926500                       # Per-master read total memory access latency
system.mem_ctrls.masterReadTotalLat::.cpu.data      4270250                       # Per-master read total memory access latency
system.mem_ctrls.masterWriteTotalLat::.writebacks     88944000                       # Per-master write total memory access latency
system.mem_ctrls.masterReadAvgLat::.cpu.inst     24019.70                       # Per-master read average memory access latency
system.mem_ctrls.masterReadAvgLat::.cpu.data     29049.32                       # Per-master read average memory access latency
system.mem_ctrls.masterWriteAvgLat::.writebacks   2068465.12                       # Per-master write average memory access latency
system.mem_ctrls.pageHitRate                    79.53                       # Row buffer hit rate, read and write combined
system.mem_ctrls.rank1.actEnergy               178500                       # Energy for activate commands per rank (pJ)
system.mem_ctrls.rank1.preEnergy                83490                       # Energy for precharge commands per rank (pJ)
system.mem_ctrls.rank1.readEnergy              799680                       # Energy for read commands per rank (pJ)
system.mem_ctrls.rank1.writeEnergy                  0                       # Energy for write commands per rank (pJ)
system.mem_ctrls.rank1.refreshEnergy     1843920.000000                       # Energy for refresh commands per rank (pJ)
system.mem_ctrls.rank1.actBackEnergy         11365230                       # Energy for active background per rank (pJ)
system.mem_ctrls.rank1.preBackEnergy           222240                       # Energy for precharge background per rank (pJ)
system.mem_ctrls.rank1.actPowerDownEnergy            0                       # Energy for active power-down per rank (pJ)
system.mem_ctrls.rank1.prePowerDownEnergy            0                       # Energy for precharge power-down per rank (pJ)
system.mem_ctrls.rank1.selfRefreshEnergy            0                       # Energy for self refresh per rank (pJ)
system.mem_ctrls.rank1.totalEnergy           14493060                       # Total energy per rank (pJ)
system.mem_ctrls.rank1.averagePower        568.310721                       # Core power per rank (mW)
system.mem_ctrls.rank1.totalIdleTime                0                       # Total Idle time Per DRAM Rank
system.mem_ctrls.rank1.memoryStateTime::IDLE       481000                       # Time in different power states
system.mem_ctrls.rank1.memoryStateTime::REF       780000                       # Time in different power states
system.mem_ctrls.rank1.memoryStateTime::SREF            0                       # Time in different power states
system.mem_ctrls.rank1.memoryStateTime::PRE_PDN            0                       # Time in different power states
system.mem_ctrls.rank1.memoryStateTime::ACT     24241000                       # Time in different power states
system.mem_ctrls.rank1.memoryStateTime::ACT_PDN            0                       # Time in different power states
system.mem_ctrls.rank0.actEnergy               392700                       # Energy for activate commands per rank (pJ)
system.mem_ctrls.rank0.preEnergy               197340                       # Energy for precharge commands per rank (pJ)
system.mem_ctrls.rank0.readEnergy             2570400                       # Energy for read commands per rank (pJ)
system.mem_ctrls.rank0.writeEnergy              83520                       # Energy for write commands per rank (pJ)
system.mem_ctrls.rank0.refreshEnergy     1843920.000000                       # Energy for refresh commands per rank (pJ)
system.mem_ctrls.rank0.actBackEnergy         11566440                       # Energy for active background per rank (pJ)
system.mem_ctrls.rank0.preBackEnergy            52800                       # Energy for precharge background per rank (pJ)
system.mem_ctrls.rank0.actPowerDownEnergy            0                       # Energy for active power-down per rank (pJ)
system.mem_ctrls.rank0.prePowerDownEnergy            0                       # Energy for precharge power-down per rank (pJ)
system.mem_ctrls.rank0.selfRefreshEnergy            0                       # Energy for self refresh per rank (pJ)
system.mem_ctrls.rank0.totalEnergy           16707120                       # Total energy per rank (pJ)
system.mem_ctrls.rank0.averagePower        655.129794                       # Core power per rank (mW)
system.mem_ctrls.rank0.totalIdleTime                0                       # Total Idle time Per DRAM Rank
system.mem_ctrls.rank0.memoryStateTime::IDLE        40750                       # Time in different power states
system.mem_ctrls.rank0.memoryStateTime::REF       780000                       # Time in different power states
system.mem_ctrls.rank0.memoryStateTime::SREF            0                       # Time in different power states
system.mem_ctrls.rank0.memoryStateTime::PRE_PDN            0                       # Time in different power states
system.mem_ctrls.rank0.memoryStateTime::ACT     24681250                       # Time in different power states
system.mem_ctrls.rank0.memoryStateTime::ACT_PDN            0                       # Time in different power states
system.cpu_clk_domain.clock                       500                       # Clock period in ticks
system.cpu.pwrStateResidencyTicks::ON        25502000                       # Cumulative time (in ticks) in various power states
system.cpu.icache.pwrStateResidencyTicks::UNDEFINED     25502000                       # Cumulative time (in ticks) in various power states
system.cpu.icache.demand_hits::.cpu.inst         2179                       # number of demand (read+write) hits
system.cpu.icache.demand_hits::total             2179                       # number of demand (read+write) hits
system.cpu.icache.overall_hits::.cpu.inst         2179                       # number of overall hits
system.cpu.icache.overall_hits::total            2179                       # number of overall hits
system.cpu.icache.demand_misses::.cpu.inst          330                       # number of demand (read+write) misses
system.cpu.icache.demand_misses::total            330                       # number of demand (read+write) misses
system.cpu.icache.overall_misses::.cpu.inst          330                       # number of overall misses
system.cpu.icache.overall_misses::total           330                       # number of overall misses
system.cpu.icache.demand_miss_latency::.cpu.inst     18684000                       # number of demand (read+write) miss cycles
system.cpu.icache.demand_miss_latency::total     18684000                       # number of demand (read+write) miss cycles
system.cpu.icache.overall_miss_latency::.cpu.inst     18684000                       # number of overall miss cycles
system.cpu.icache.overall_miss_latency::total     18684000                       # number of overall miss cycles
system.cpu.icache.demand_accesses::.cpu.inst         2509                       # number of demand (read+write) accesses
system.cpu.icache.demand_accesses::total         2509                       # number of demand (read+write) accesses
system.cpu.icache.overall_accesses::.cpu.inst         2509                       # number of overall (read+write) accesses
system.cpu.icache.overall_accesses::total         2509                       # number of overall (read+write) accesses
system.cpu.icache.demand_miss_rate::.cpu.inst     0.131527                       # miss rate for demand accesses
system.cpu.icache.demand_miss_rate::total     0.131527                       # miss rate for demand accesses
system.cpu.icache.overall_miss_rate::.cpu.inst     0.131527                       # miss rate for overall accesses
system.cpu.icache.overall_miss_rate::total     0.131527                       # miss rate for overall accesses
system.cpu.icache.demand_avg_miss_latency::.cpu.inst 56618.181818                       # average overall miss latency
system.cpu.icache.demand_avg_miss_latency::total 56618.181818                       # average overall miss latency
system.cpu.icache.overall_avg_miss_latency::.cpu.inst 56618.181818                       # average overall miss latency
system.cpu.icache.overall_avg_miss_latency::total 56618.181818                       # average overall miss latency
system.cpu.icache.blocked_cycles::no_mshrs            0                       # number of cycles access was blocked
system.cpu.icache.blocked_cycles::no_targets            0                       # number of cycles access was blocked
system.cpu.icache.blocked::no_mshrs                 0                       # number of cycles access was blocked
system.cpu.icache.blocked::no_targets               0                       # number of cycles access was blocked
system.cpu.icache.avg_blocked_cycles::no_mshrs          nan                       # average number of cycles each access was blocked
system.cpu.icache.avg_blocked_cycles::no_targets          nan                       # average number of cycles each access was blocked
system.cpu.icache.writebacks::.writebacks           55                       # number of writebacks
system.cpu.icache.writebacks::total                55                       # number of writebacks
system.cpu.icache.demand_mshr_misses::.cpu.inst          330                       # number of demand (read+write) MSHR misses
system.cpu.icache.demand_mshr_misses::total          330                       # number of demand (read+write) MSHR misses
system.cpu.icache.overall_mshr_misses::.cpu.inst          330                       # number of overall MSHR misses
system.cpu.icache.overall_mshr_misses::total          330                       # number of overall MSHR misses
system.cpu.icache.demand_mshr_miss_latency::.cpu.inst     18354000                       # number of demand (read+write) MSHR miss cycles
system.cpu.icache.demand_mshr_miss_latency::total     18354000                       # number of demand (read+write) MSHR miss cycles
system.cpu.icache.overall_mshr_miss_latency::.cpu.inst     18354000                       # number of overall MSHR miss cycles
system.cpu.icache.overall_mshr_miss_latency::total     18354000                       # number of overall MSHR miss cycles
system.cpu.icache.demand_mshr_miss_rate::.cpu.inst     0.131527                       # mshr miss rate for demand accesses
system.cpu.icache.demand_mshr_miss_rate::total     0.131527                       # mshr miss rate for demand accesses
system.cpu.icache.overall_mshr_miss_rate::.cpu.inst     0.131527                       # mshr miss rate for overall accesses
system.cpu.icache.overall_mshr_miss_rate::total     0.131527                       # mshr miss rate for overall accesses
system.cpu.icache.demand_avg_mshr_miss_latency::.cpu.inst 55618.181818                       # average overall mshr miss latency
system.cpu.icache.demand_avg_mshr_miss_latency::total 55618.181818                       # average overall mshr miss latency
system.cpu.icache.overall_avg_mshr_miss_latency::.cpu.inst 55618.181818                       # average overall mshr miss latency
system.cpu.icache.overall_avg_mshr_miss_latency::total 55618.181818                       # average overall mshr miss latency
system.cpu.icache.replacements                     55                       # number of replacements
system.cpu.icache.ReadReq_hits::.cpu.inst         2179                       # number of ReadReq hits
system.cpu.icache.ReadReq_hits::total            2179                       # number of ReadReq hits
system.cpu.icache.ReadReq_misses::.cpu.inst          330                       # number of ReadReq misses
system.cpu.icache.ReadReq_misses::total           330                       # number of ReadReq misses
system.cpu.icache.ReadReq_miss_latency::.cpu.inst     18684000                       # number of ReadReq miss cycles
system.cpu.icache.ReadReq_miss_latency::total     18684000                       # number of ReadReq miss cycles
system.cpu.icache.ReadReq_accesses::.cpu.inst         2509                       # number of ReadReq accesses(hits+misses)
system.cpu.icache.ReadReq_accesses::total         2509                       # number of ReadReq accesses(hits+misses)
system.cpu.icache.ReadReq_miss_rate::.cpu.inst     0.131527                       # miss rate for ReadReq accesses
system.cpu.icache.ReadReq_miss_rate::total     0.131527                       # miss rate for ReadReq accesses
system.cpu.icache.ReadReq_avg_miss_latency::.cpu.inst 56618.181818                       # average ReadReq miss latency
system.cpu.icache.ReadReq_avg_miss_latency::total 56618.181818                       # average ReadReq miss latency
system.cpu.icache.ReadReq_mshr_misses::.cpu.inst          330                       # number of ReadReq MSHR misses
system.cpu.icache.ReadReq_mshr_misses::total          330                       # number of ReadReq MSHR misses
system.cpu.icache.ReadReq_mshr_miss_latency::.cpu.inst     18354000                       # number of ReadReq MSHR miss cycles
system.cpu.icache.ReadReq_mshr_miss_latency::total     18354000                       # number of ReadReq MSHR miss cycles
system.cpu.icache.ReadReq_mshr_miss_rate::.cpu.inst     0.131527                       # mshr miss rate for ReadReq accesses
system.cpu.icache.ReadReq_mshr_miss_rate::total     0.131527                       # mshr miss rate for ReadReq accesses
system.cpu.icache.ReadReq_avg_mshr_miss_latency::.cpu.inst 55618.181818                       # average ReadReq mshr miss latency
system.cpu.icache.ReadReq_avg_mshr_miss_latency::total 55618.181818                       # average ReadReq mshr miss latency
system.cpu.icache.tags.pwrStateResidencyTicks::UNDEFINED     25502000                       # Cumulative time (in ticks) in various power states
system.cpu.icache.tags.tagsinuse           152.793041                       # Cycle average of tags in use
system.cpu.icache.tags.total_refs                2509                       # Total number of references to valid blocks.
system.cpu.icache.tags.sampled_refs               330                       # Sample count of references to valid blocks.
system.cpu.icache.tags.avg_refs              7.603030                       # Average number of references to valid blocks.
system.cpu.icache.tags.warmup_cycle             77000                       # Cycle when the warmup percentage was hit.
system.cpu.icache.tags.occ_blocks::.cpu.inst   152.793041                       # Average occupied blocks per requestor
system.cpu.icache.tags.occ_percent::.cpu.inst     0.298424                       # Average percentage of cache occupancy
system.cpu.icache.tags.occ_percent::total     0.298424                       # Average percentage of cache occupancy
system.cpu.icache.tags.occ_task_id_blocks::1024          275                       # Occupied blocks per task id
system.cpu.icache.tags.age_task_id_blocks_1024::0          125                       # Occupied blocks per task id
system.cpu.icache.tags.age_task_id_blocks_1024::1          150                       # Occupied blocks per task id
system.cpu.icache.tags.occ_task_id_percent::1024     0.537109                       # Percentage of cache occupancy per task id
system.cpu.icache.tags.tag_accesses              5348                       # Number of tag accesses
system.cpu.icache.tags.data_accesses             5348                       # Number of data accesses
system.cpu.dtb.walker.pwrStateResidencyTicks::UNDEFINED     25502000                       # Cumulative time (in ticks) in various power states
system.cpu.dtb.stage2_mmu.stage2_tlb.walker.pwrStateResidencyTicks::UNDEFINED     25502000                       # Cumulative time (in ticks) in various power states
system.cpu.dcache.pwrStateResidencyTicks::UNDEFINED     25502000                       # Cumulative time (in ticks) in various power states
system.cpu.dcache.demand_hits::.cpu.data         1977                       # number of demand (read+write) hits
system.cpu.dcache.demand_hits::total             1977                       # number of demand (read+write) hits
system.cpu.dcache.overall_hits::.cpu.data         1977                       # number of overall hits
system.cpu.dcache.overall_hits::total            1977                       # number of overall hits
system.cpu.dcache.demand_misses::.cpu.data          177                       # number of demand (read+write) misses
system.cpu.dcache.demand_misses::total            177                       # number of demand (read+write) misses
system.cpu.dcache.overall_misses::.cpu.data          177                       # number of overall misses
system.cpu.dcache.overall_misses::total           177                       # number of overall misses
system.cpu.dcache.demand_miss_latency::.cpu.data     10832500                       # number of demand (read+write) miss cycles
system.cpu.dcache.demand_miss_latency::total     10832500                       # number of demand (read+write) miss cycles
system.cpu.dcache.overall_miss_latency::.cpu.data     10832500                       # number of overall miss cycles
system.cpu.dcache.overall_miss_latency::total     10832500                       # number of overall miss cycles
system.cpu.dcache.demand_accesses::.cpu.data         2154                       # number of demand (read+write) accesses
system.cpu.dcache.demand_accesses::total         2154                       # number of demand (read+write) accesses
system.cpu.dcache.overall_accesses::.cpu.data         2154                       # number of overall (read+write) accesses
system.cpu.dcache.overall_accesses::total         2154                       # number of overall (read+write) accesses
system.cpu.dcache.demand_miss_rate::.cpu.data     0.082173                       # miss rate for demand accesses
system.cpu.dcache.demand_miss_rate::total     0.082173                       # miss rate for demand accesses
system.cpu.dcache.overall_miss_rate::.cpu.data     0.082173                       # miss rate for overall accesses
system.cpu.dcache.overall_miss_rate::total     0.082173                       # miss rate for overall accesses
system.cpu.dcache.demand_avg_miss_latency::.cpu.data 61200.564972                       # average overall miss latency
system.cpu.dcache.demand_avg_miss_latency::total 61200.564972                       # average overall miss latency
system.cpu.dcache.overall_avg_miss_latency::.cpu.data 61200.564972                       # average overall miss latency
system.cpu.dcache.overall_avg_miss_latency::total 61200.564972                       # average overall miss latency
system.cpu.dcache.blocked_cycles::no_mshrs            0                       # number of cycles access was blocked
system.cpu.dcache.blocked_cycles::no_targets            0                       # number of cycles access was blocked
system.cpu.dcache.blocked::no_mshrs                 0                       # number of cycles access was blocked
system.cpu.dcache.blocked::no_targets               0                       # number of cycles access was blocked
system.cpu.dcache.avg_blocked_cycles::no_mshrs          nan                       # average number of cycles each access was blocked
system.cpu.dcache.avg_blocked_cycles::no_targets          nan                       # average number of cycles each access was blocked
system.cpu.dcache.demand_mshr_hits::.cpu.data           30                       # number of demand (read+write) MSHR hits
system.cpu.dcache.demand_mshr_hits::total           30                       # number of demand (read+write) MSHR hits
system.cpu.dcache.overall_mshr_hits::.cpu.data           30                       # number of overall MSHR hits
system.cpu.dcache.overall_mshr_hits::total           30                       # number of overall MSHR hits
system.cpu.dcache.demand_mshr_misses::.cpu.data          147                       # number of demand (read+write) MSHR misses
system.cpu.dcache.demand_mshr_misses::total          147                       # number of demand (read+write) MSHR misses
system.cpu.dcache.overall_mshr_misses::.cpu.data          147                       # number of overall MSHR misses
system.cpu.dcache.overall_mshr_misses::total          147                       # number of overall MSHR misses
system.cpu.dcache.demand_mshr_miss_latency::.cpu.data      8984000                       # number of demand (read+write) MSHR miss cycles
system.cpu.dcache.demand_mshr_miss_latency::total      8984000                       # number of demand (read+write) MSHR miss cycles
system.cpu.dcache.overall_mshr_miss_latency::.cpu.data      8984000                       # number of overall MSHR miss cycles
system.cpu.dcache.overall_mshr_miss_latency::total      8984000                       # number of overall MSHR miss cycles
system.cpu.dcache.demand_mshr_miss_rate::.cpu.data     0.068245                       # mshr miss rate for demand accesses
system.cpu.dcache.demand_mshr_miss_rate::total     0.068245                       # mshr miss rate for demand accesses
system.cpu.dcache.overall_mshr_miss_rate::.cpu.data     0.068245                       # mshr miss rate for overall accesses
system.cpu.dcache.overall_mshr_miss_rate::total     0.068245                       # mshr miss rate for overall accesses
system.cpu.dcache.demand_avg_mshr_miss_latency::.cpu.data 61115.646259                       # average overall mshr miss latency
system.cpu.dcache.demand_avg_mshr_miss_latency::total 61115.646259                       # average overall mshr miss latency
system.cpu.dcache.overall_avg_mshr_miss_latency::.cpu.data 61115.646259                       # average overall mshr miss latency
system.cpu.dcache.overall_avg_mshr_miss_latency::total 61115.646259                       # average overall mshr miss latency
system.cpu.dcache.replacements                      0                       # number of replacements
system.cpu.dcache.ReadReq_hits::.cpu.data         1119                       # number of ReadReq hits
system.cpu.dcache.ReadReq_hits::total            1119                       # number of ReadReq hits
system.cpu.dcache.ReadReq_misses::.cpu.data          110                       # number of ReadReq misses
system.cpu.dcache.ReadReq_misses::total           110                       # number of ReadReq misses
system.cpu.dcache.ReadReq_miss_latency::.cpu.data      7083500                       # number of ReadReq miss cycles
system.cpu.dcache.ReadReq_miss_latency::total      7083500                       # number of ReadReq miss cycles
system.cpu.dcache.ReadReq_accesses::.cpu.data         1229                       # number of ReadReq accesses(hits+misses)
system.cpu.dcache.ReadReq_accesses::total         1229                       # number of ReadReq accesses(hits+misses)
system.cpu.dcache.ReadReq_miss_rate::.cpu.data     0.089504                       # miss rate for ReadReq accesses
system.cpu.dcache.ReadReq_miss_rate::total     0.089504                       # miss rate for ReadReq accesses
system.cpu.dcache.ReadReq_avg_miss_latency::.cpu.data 64395.454545                       # average ReadReq miss latency
system.cpu.dcache.ReadReq_avg_miss_latency::total 64395.454545                       # average ReadReq miss latency
system.cpu.dcache.ReadReq_mshr_hits::.cpu.data            6                       # number of ReadReq MSHR hits
system.cpu.dcache.ReadReq_mshr_hits::total            6                       # number of ReadReq MSHR hits
system.cpu.dcache.ReadReq_mshr_misses::.cpu.data          104                       # number of ReadReq MSHR misses
system.cpu.dcache.ReadReq_mshr_misses::total          104                       # number of ReadReq MSHR misses
system.cpu.dcache.ReadReq_mshr_miss_latency::.cpu.data      6651500                       # number of ReadReq MSHR miss cycles
system.cpu.dcache.ReadReq_mshr_miss_latency::total      6651500                       # number of ReadReq MSHR miss cycles
system.cpu.dcache.ReadReq_mshr_miss_rate::.cpu.data     0.084622                       # mshr miss rate for ReadReq accesses
system.cpu.dcache.ReadReq_mshr_miss_rate::total     0.084622                       # mshr miss rate for ReadReq accesses
system.cpu.dcache.ReadReq_avg_mshr_miss_latency::.cpu.data 63956.730769                       # average ReadReq mshr miss latency
system.cpu.dcache.ReadReq_avg_mshr_miss_latency::total 63956.730769                       # average ReadReq mshr miss latency
system.cpu.dcache.WriteReq_hits::.cpu.data          858                       # number of WriteReq hits
system.cpu.dcache.WriteReq_hits::total            858                       # number of WriteReq hits
system.cpu.dcache.WriteReq_misses::.cpu.data           67                       # number of WriteReq misses
system.cpu.dcache.WriteReq_misses::total           67                       # number of WriteReq misses
system.cpu.dcache.WriteReq_miss_latency::.cpu.data      3749000                       # number of WriteReq miss cycles
system.cpu.dcache.WriteReq_miss_latency::total      3749000                       # number of WriteReq miss cycles
system.cpu.dcache.WriteReq_accesses::.cpu.data          925                       # number of WriteReq accesses(hits+misses)
system.cpu.dcache.WriteReq_accesses::total          925                       # number of WriteReq accesses(hits+misses)
system.cpu.dcache.WriteReq_miss_rate::.cpu.data     0.072432                       # miss rate for WriteReq accesses
system.cpu.dcache.WriteReq_miss_rate::total     0.072432                       # miss rate for WriteReq accesses
system.cpu.dcache.WriteReq_avg_miss_latency::.cpu.data 55955.223881                       # average WriteReq miss latency
system.cpu.dcache.WriteReq_avg_miss_latency::total 55955.223881                       # average WriteReq miss latency
system.cpu.dcache.WriteReq_mshr_hits::.cpu.data           24                       # number of WriteReq MSHR hits
system.cpu.dcache.WriteReq_mshr_hits::total           24                       # number of WriteReq MSHR hits
system.cpu.dcache.WriteReq_mshr_misses::.cpu.data           43                       # number of WriteReq MSHR misses
system.cpu.dcache.WriteReq_mshr_misses::total           43                       # number of WriteReq MSHR misses
system.cpu.dcache.WriteReq_mshr_miss_latency::.cpu.data      2332500                       # number of WriteReq MSHR miss cycles
system.cpu.dcache.WriteReq_mshr_miss_latency::total      2332500                       # number of WriteReq MSHR miss cycles
system.cpu.dcache.WriteReq_mshr_miss_rate::.cpu.data     0.046486                       # mshr miss rate for WriteReq accesses
system.cpu.dcache.WriteReq_mshr_miss_rate::total     0.046486                       # mshr miss rate for WriteReq accesses
system.cpu.dcache.WriteReq_avg_mshr_miss_latency::.cpu.data 54244.186047                       # average WriteReq mshr miss latency
system.cpu.dcache.WriteReq_avg_mshr_miss_latency::total 54244.186047                       # average WriteReq mshr miss latency
system.cpu.dcache.LoadLockedReq_hits::.cpu.data           11                       # number of LoadLockedReq hits
system.cpu.dcache.LoadLockedReq_hits::total           11                       # number of LoadLockedReq hits
system.cpu.dcache.LoadLockedReq_accesses::.cpu.data           11                       # number of LoadLockedReq accesses(hits+misses)
system.cpu.dcache.LoadLockedReq_accesses::total           11                       # number of LoadLockedReq accesses(hits+misses)
system.cpu.dcache.StoreCondReq_hits::.cpu.data           11                       # number of StoreCondReq hits
system.cpu.dcache.StoreCondReq_hits::total           11                       # number of StoreCondReq hits
system.cpu.dcache.StoreCondReq_accesses::.cpu.data           11                       # number of StoreCondReq accesses(hits+misses)
system.cpu.dcache.StoreCondReq_accesses::total           11                       # number of StoreCondReq accesses(hits+misses)
system.cpu.dcache.tags.pwrStateResidencyTicks::UNDEFINED     25502000                       # Cumulative time (in ticks) in various power states
system.cpu.dcache.tags.tagsinuse            88.289352                       # Cycle average of tags in use
system.cpu.dcache.tags.total_refs                2146                       # Total number of references to valid blocks.
system.cpu.dcache.tags.sampled_refs               147                       # Sample count of references to valid blocks.
system.cpu.dcache.tags.avg_refs             14.598639                       # Average number of references to valid blocks.
system.cpu.dcache.tags.warmup_cycle            136000                       # Cycle when the warmup percentage was hit.
system.cpu.dcache.tags.occ_blocks::.cpu.data    88.289352                       # Average occupied blocks per requestor
system.cpu.dcache.tags.occ_percent::.cpu.data     0.086220                       # Average percentage of cache occupancy
system.cpu.dcache.tags.occ_percent::total     0.086220                       # Average percentage of cache occupancy
system.cpu.dcache.tags.occ_task_id_blocks::1024          147                       # Occupied blocks per task id
system.cpu.dcache.tags.age_task_id_blocks_1024::0           40                       # Occupied blocks per task id
system.cpu.dcache.tags.age_task_id_blocks_1024::1          107                       # Occupied blocks per task id
system.cpu.dcache.tags.occ_task_id_percent::1024     0.143555                       # Percentage of cache occupancy per task id
system.cpu.dcache.tags.tag_accesses              4499                       # Number of tag accesses
system.cpu.dcache.tags.data_accesses             4499                       # Number of data accesses
system.cpu.itb.walker.pwrStateResidencyTicks::UNDEFINED     25502000                       # Cumulative time (in ticks) in various power states
system.cpu.itb.stage2_mmu.stage2_tlb.walker.pwrStateResidencyTicks::UNDEFINED     25502000                       # Cumulative time (in ticks) in various power states

---------- End Simulation Statistics   ----------
